*SPEF "IEEE 1481-1998"
*DESIGN "cur_dec"
*DATE "Tue Aug 29 16:03:13 2017"
*VENDOR "Cadence Design Systems, Inc."
*PROGRAM "Innovus"
*VERSION "15.28-s017_1"
*DESIGN_FLOW "PIN_CAP NONE" "NAME_SCOPE LOCAL"
*DIVIDER /
*DELIMITER :
*BUS_DELIMITER []
*T_UNIT 1 NS
*C_UNIT 1 PF
*R_UNIT 1 OHM
*L_UNIT 1 HENRY

// MMMC spef file for corner 'ams_rc_corner_minCaR'

*NAME_MAP

*1 CTS_80
*2 CTS_79
*3 CTS_78
*4 CTS_77
*5 CTS_76
*6 CTS_75
*7 CTS_74
*8 CTS_73
*9 sll_18_12/CTS_71
*10 CTS_72
*11 CTS_71
*12 CTS_70
*13 CTS_69
*14 CTS_68
*15 CTS_67
*16 CTS_66
*17 CTS_65
*18 out[15]
*19 out[14]
*20 out[13]
*21 out[12]
*22 out[11]
*23 out[10]
*24 out[9]
*25 out[8]
*26 out[7]
*27 out[6]
*28 out[5]
*29 out[4]
*30 out[3]
*31 out[2]
*32 out[1]
*33 out[0]
*34 in[3]
*35 in[2]
*36 in[1]
*37 in[0]
*38 logic_1_1_net
*39 sll_18_12/n_15
*40 sll_18_12/n_13
*41 sll_18_12/n_12
*42 sll_18_12/n_11
*43 sll_18_12/n_6
*44 sll_18_12/n_5
*45 sll_18_12/n_4
*46 sll_18_12/n_3
*47 sll_18_12/n_2
*48 sll_18_12/n_0
*49 CTS_ccl_BUF_in_0__G0_L3_8
*50 CTS_ccl_BUF_in_0__G0_L3_7
*51 CTS_ccl_BUF_in_0__G0_L3_6
*52 CTS_ccl_BUF_in_0__G0_L3_5
*53 CTS_ccl_BUF_in_0__G0_L3_4
*54 CTS_ccl_BUF_in_0__G0_L3_3
*55 CTS_ccl_BUF_in_0__G0_L3_2
*56 CTS_ccl_BUF_in_0__G0_L3_1
*57 CTS_ccl_BUF_in_0__G0_L4_8
*58 CTS_ccl_BUF_in_0__G0_L4_7
*59 CTS_ccl_BUF_in_0__G0_L4_6
*60 CTS_ccl_BUF_in_0__G0_L4_5
*61 CTS_ccl_BUF_in_0__G0_L4_4
*62 CTS_ccl_BUF_in_0__G0_L4_3
*63 CTS_ccl_BUF_in_0__G0_L4_2
*64 CTS_ccl_BUF_in_0__G0_L4_1
*65 tie_1_cell
*66 sll_18_12/CTS_cex_INV_in_0__G0_L1_1
*67 sll_18_12/g68
*68 sll_18_12/g70
*69 sll_18_12/g178
*70 sll_18_12/g179
*71 sll_18_12/g180
*72 sll_18_12/g181
*73 sll_18_12/g67
*74 sll_18_12/g69
*75 sll_18_12/g162
*76 sll_18_12/g163
*77 sll_18_12/g164
*78 sll_18_12/g165
*79 sll_18_12/g166
*80 sll_18_12/g167
*81 sll_18_12/g168
*82 sll_18_12/g169
*83 sll_18_12/g170
*84 sll_18_12/g171
*85 sll_18_12/g172
*86 sll_18_12/g173
*87 sll_18_12/g174
*88 sll_18_12/g175
*89 sll_18_12/g176
*90 sll_18_12/g177
*91 sll_18_12/g64
*92 sll_18_12/g71


*PORTS

*18 O *C 33.32 0
*19 O *C 34.44 0
*20 O *C 35.56 0
*21 O *C 36.68 0
*22 O *C 37.8 0
*23 O *C 38.92 0
*24 O *C 40.04 0
*25 O *C 41.16 0
*26 O *C 42.28 0
*27 O *C 43.4 0
*28 O *C 44.52 0
*29 O *C 45.64 0
*30 O *C 46.76 0
*31 O *C 47.88 0
*32 O *C 49 0
*33 O *C 50.12 0
*34 I *C 42.28 49.84
*35 I *C 41.16 49.84
*36 I *C 40.04 49.84
*37 I *C 38.92 49.84


*D_NET *18 0.00708053

*CONN
*P *18 O *C 33.32 0 *L 0
*I *49:Q O *C 68.85 36.52 *L 0 *D CLKBUFX3

*CAP
1 *18 0.000215847
2 *18:2 0.0033788
3 *18:3 0.0032717
4 *18:4 0.000214182

*RES
1 *49:Q *18:2 5.91402
2 *18:3 *18:4 0.201007
3 *18:2 *18:3 6.34678
4 *18 *18:4 0.15375
*END

*D_NET *34 0.00988558

*CONN
*P *34 I *C 42.28 49.84 *L 0
*I *91:A I *C 55.72 36.12 *L 0.00138 *D INVXL
*I *71:B I *C 36.68 15.4 *L 0.00146 *D NAND2XL
*I *69:B I *C 25.48 25.48 *L 0.00146 *D NAND2XL

*CAP
1 *34 0.000523801
2 *91:A 0.000193135
3 *71:B 0.000910967
4 *69:B 0.000401173
5 *34:4 8.63478e-05
6 *34:5 0.000555017
7 *34:6 0.000326593
8 *34:7 0.00149696
9 *34:8 0.00166424
10 *34:9 0.000115677
11 *34:10 0.000103611
12 *34:11 0.00115976
13 *34:12 0.000760272
14 *34:13 7.03907e-05
15 *34:14 0.00151764

*RES
1 *34:10 *34:14 2.2171
2 *91:A *34:15 0.518011
3 *34:15 *34:4 0.148401
4 *34 *34:10 1.1138
5 *34:6 *34:13 0.438854
6 *34:6 *34:7 3.408
7 *34:16 *34:14 0.495143
8 *34:4 *34:5 1.54811
9 *34:11 *34:14 1.62917
10 *34:7 *34:8 2.38383
11 *34:17 *34:11 0.105002
12 *34:17 *34:12 0.849225
13 *71:B *34:7 1.07554
14 *34:5 *34:16 0.148401
15 *34:8 *34:9 1.27654
16 *34:12 *34:13 0.105002
17 *69:B *34:9 1.01826
*END

*D_NET *13 0.0046705

*CONN
*I *87:Q O *C 40.42 25.96 *L 0 *D NOR2XL
*I *60:A I *C 14.28 14.84 *L 0.00219 *D CLKBUFX3

*CAP
1 *87:Q 0.000197221
2 *60:A 0.000292529
3 *13:2 0.000904734
4 *13:3 0.00327602

*RES
1 *60:A *13:3 0.691518
2 *87:Q *13:2 1.2188
3 *13:2 *13:3 4.81072
*END

*D_NET *19 0.00606317

*CONN
*P *19 O *C 34.44 0 *L 0
*I *59:Q O *C 66.61 16.36 *L 0 *D CLKBUFX3

*CAP
1 *19 0.000299933
2 *19:2 0.000637207
3 *19:3 0.00369862
4 *19:4 0.00142741

*RES
1 *59:Q *19:2 0.825782
2 *19:3 *19:4 1.83308
3 *19:2 *19:3 5.77076
4 *19 *19:4 0.15375
*END

*D_NET *35 0.00665734

*CONN
*P *35 I *C 41.16 49.84 *L 0
*I *74:A I *C 28.84 29.96 *L 0.00137 *D NAND2XL
*I *73:B I *C 27.16 29.4 *L 0.00146 *D NAND2XL
*I *68:B I *C 39.48 35 *L 0.00222 *D OR2X3
*I *67:A I *C 23.8 29.96 *L 0.00195 *D OR2X3

*CAP
1 *35 0.000251079
2 *74:A 0.00129501
3 *35:5 0.000818217
4 *35:6 0.000195612
5 *35:7 0.000317978
6 *35:8 0.000530045
7 *35:9 0.000461911
8 *35:10 0.00187527
9 *35:11 0.000303358
10 *35:12 9.64939e-05
11 *35:13 0.000512368

*RES
1 *35:11 *35:13 0.585025
2 *35:5 *35:10 1.01779
3 *35:14 *35:6 0.196508
4 *35:11 *35:12 0.297011
5 *35:15 *35:8 0.144007
6 *74:A *35:5 3.24323
7 *35:6 *35:10 2.3972
8 *35:12 *35:7 0.15375
9 *35:13 *35:9 0.15375
10 *35:11 *35:15 0.15375
11 *35 *35:14 0.15375
12 *35:8 *73:B 0.15375
13 *35:9 *67:A 0.15375
14 *35:10 *68:B 0.15375
15 *35:7 *74:A 0.15375
*END

*D_NET *14 0.00399478

*CONN
*I *78:Q O *C 38.18 25.96 *L 0 *D NOR2XL
*I *61:A I *C 56.84 14.84 *L 0.00219 *D CLKBUFX3

*CAP
1 *78:Q 0.000193082
2 *61:A 0.000219499
3 *14:2 0.000154939
4 *14:3 0.00342726

*RES
1 *61:A *14:2 0.499509
2 *78:Q *14:3 1.41081
3 *14:2 *14:3 3.46665
*END

*D_NET *20 0.00569885

*CONN
*P *20 O *C 35.56 0 *L 0
*I *50:Q O *C 56.53 26.44 *L 0 *D CLKBUFX3

*CAP
1 *20 0.000389255
2 *20:2 0.000955384
3 *20:3 0.00253375
4 *20:4 0.00182046

*RES
1 *50:Q *20:2 1.2098
2 *20:3 *20:4 3.3219
3 *20:2 *20:3 3.79292
4 *20:4 *20 0.15375
*END

*D_NET *36 0.00597869

*CONN
*P *36 I *C 40.04 49.84 *L 0
*I *92:A I *C 26.6 36.12 *L 0.00138 *D INVXL
*I *74:B I *C 27.72 29.4 *L 0.00146 *D NAND2XL
*I *68:A I *C 38.92 35 *L 0.00195 *D OR2X3

*CAP
1 *36 0.000206093
2 *92:A 0.000158411
3 *74:B 0.000284321
4 *68:A 0.000425483
5 *36:4 0.000260763
6 *36:5 0.000322521
7 *36:6 0.00028426
8 *36:7 0.000234442
9 *36:8 6.28533e-05
10 *36:9 0.00084911
11 *36:10 0.000466632
12 *36:11 2.21671e-05
13 *36:12 0.00126403
14 *36:13 0.000490741
15 *36:14 0.000415389
16 *36:15 5.88378e-05
17 *36:16 0.000172636

*RES
1 *36:5 *36:12 2.13159
2 *36:13 *36:14 0.573118
3 *36:7 *36:8 0.105002
4 *36:4 *36:7 0.285104
5 *36:15 *36:16 0.177193
6 *36:10 *36:11 0.0844299
7 *36:10 *36:17 0.369202
8 *36:12 *36:14 0.288014
9 *36:18 *36:6 0.105002
10 *36 *36:15 0.105002
11 *36:19 *36:9 0.105002
12 *36:4 *36:16 0.345759
13 *36:5 *36:19 0.285104
14 *36:5 *36:6 0.285104
15 *74:B *36:11 0.470458
16 *36:8 *36:9 1.13724
17 *36:17 *36:13 0.105002
18 *68:A *36:18 0.338351
19 *92:A *36:14 0.48922
*END

*D_NET *15 0.00419902

*CONN
*I *81:Q O *C 33.7 25.96 *L 0 *D NOR2XL
*I *62:A I *C 64.68 24.92 *L 0.00219 *D CLKBUFX3

*CAP
1 *81:Q 0.000176368
2 *15:2 0.000532608
3 *15:3 0.00349004

*RES
1 *62:A *15:2 0.787523
2 *81:Q *15:3 0.354757
3 *15:2 *15:3 5.48275
*END

*D_NET *21 0.00397852

*CONN
*P *21 O *C 36.68 0 *L 0
*I *60:Q O *C 15.09 16.36 *L 0 *D CLKBUFX3

*CAP
1 *21 0.000299844
2 *60:Q 9.21818e-05
3 *21:2 0.000144765
4 *21:3 0.000474705
5 *21:4 0.00284375
6 *21:5 0.000123276

*RES
1 *21:2 *21:3 0.48902
2 *21:4 *21:5 2.02509
3 *21:2 *21:4 3.75467
4 *21 *21:3 0.15375
5 *21:5 *60:Q 0.15375
*END

*D_NET *37 0.00734459

*CONN
*P *37 I *C 38.92 49.84 *L 0
*I *72:A I *C 23.24 35 *L 0.00137 *D NAND2XL
*I *71:A I *C 35.56 14.84 *L 0.00137 *D NAND2XL
*I *66:A I *C 36.68 24.92 *L 0.00193 *D CLKINVX1

*CAP
1 *37 0.000197944
2 *72:A 0.00161079
3 *71:A 0.00143439
4 *37:4 0.000190998
5 *37:5 0.000193191
6 *37:6 0.000356653
7 *37:7 0.00101365
8 *37:8 0.000238624
9 *37:9 0.00210835

*RES
1 *37:7 *37:8 2.45786
2 *71:A *37:6 1.88183
3 *37:6 *37:9 0.345759
4 *37:4 *37:5 0.240011
5 *37 *37:8 0.384018
6 *37:8 *37:9 4.4357
7 *72:A *37:7 2.55386
8 *37:9 *37:4 0.15375
9 *37:4 *66:A 0.3075
*END

*D_NET *16 0.00352805

*CONN
*I *84:Q O *C 28.66 36.04 *L 0 *D NOR2XL
*I *63:A I *C 23.24 14.84 *L 0.00219 *D CLKBUFX3

*CAP
1 *84:Q 0.000185649
2 *63:A 0.00216982
3 *16:2 0.000260499
4 *16:3 0.000912085

*RES
1 *63:A *16:3 3.28364
2 *84:Q *16:2 0.354757
3 *16:2 *16:3 1.35455
*END

*D_NET *22 0.00502826

*CONN
*P *22 O *C 37.8 0 *L 0
*I *52:Q O *C 21.81 26.44 *L 0 *D CLKBUFX3

*CAP
1 *22 0.000304824
2 *22:2 0.00233226
3 *22:3 9.95352e-05
4 *22:4 0.00229164

*RES
1 *52:Q *22:2 1.01779
2 *22:3 *22:4 3.52291
3 *22:2 *22:3 2.73688
4 *22:4 *22 0.15375
*END

*D_NET *1 0.00781503

*CONN
*I *75:Q O *C 18.38 15.88 *L 0 *D NOR2XL
*I *49:A I *C 68.04 35 *L 0.00219 *D CLKBUFX3

*CAP
1 *75:Q 0.00245707
2 *1:2 0.000139057
3 *1:3 3.0155e-05
4 *1:4 0.000121477
5 *1:5 0.00506727

*RES
1 *75:Q *1:5 3.71492
2 *1:2 *1:3 0.105002
3 *1:3 *1:4 0.0675045
4 *1:2 *1:5 8.8429
5 *1:3 *49:A 0.3075
*END

*D_NET *17 0.00263469

*CONN
*I *88:Q O *C 63.18 15.88 *L 0 *D NOR2XL
*I *64:A I *C 47.88 14.84 *L 0.00219 *D CLKBUFX3

*CAP
1 *88:Q 0.000124243
2 *17:2 0.000219669
3 *17:3 0.000136683
4 *17:4 0.000150849
5 *17:5 0.000181014
6 *17:6 0.00182223

*RES
1 *17:2 *17:3 0.172507
2 *17:4 *17:5 0.172507
3 *17:7 *17:6 2.48712
4 *17:7 *17:2 0.15375
5 *17:6 *17:4 0.15375
6 *17:2 *88:Q 0.15375
7 *17:4 *64:A 0.3075
*END

*D_NET *23 0.00535757

*CONN
*P *23 O *C 38.92 0 *L 0
*I *57:Q O *C 33.01 36.52 *L 0 *D CLKBUFX3

*CAP
1 *23 0.000320116
2 *57:Q 9.22009e-05
3 *23:2 0.0016546
4 *23:3 0.000144224
5 *23:4 0.000100031
6 *23:5 0.0030464

*RES
1 *23:2 *23:3 1.25706
2 *23:2 *23:4 0.912789
3 *23:4 *23:5 4.86697
4 *23:5 *23 0.15375
5 *23:3 *57:Q 0.15375
*END

*D_NET *2 0.00177976

*CONN
*I *76:Q O *C 54.22 15.88 *L 0 *D NOR2XL
*I *50:A I *C 55.72 24.92 *L 0.00219 *D CLKBUFX3

*CAP
1 *76:Q 0.000200791
2 *2:2 0.00157897

*RES
1 *76:Q *2:2 0.506167
2 *50:A *2:2 2.28534
*END

*D_NET *24 0.00691704

*CONN
*P *24 O *C 40.04 0 *L 0
*I *51:Q O *C 64.93 36.52 *L 0 *D CLKBUFX3

*CAP
1 *24 0.00035905
2 *24:2 0.00106613
3 *24:3 0.00289309
4 *24:4 0.00259877

*RES
1 *51:Q *24:2 1.40181
2 *24:3 *24:4 4.85797
3 *24:2 *24:3 4.46496
4 *24:4 *24 0.15375
*END

*D_NET *3 0.00216654

*CONN
*I *80:Q O *C 62.06 25.96 *L 0 *D NOR2XL
*I *51:A I *C 64.12 35 *L 0.00219 *D CLKBUFX3

*CAP
1 *80:Q 0.000362052
2 *3:2 0.00136376
3 *3:3 0.00044073

*RES
1 *51:A *3:2 1.84357
2 *80:Q *3:3 0.354757
3 *3:2 *3:3 0.68252
*END

*D_NET *39 0.0127455

*CONN
*I *84:B I *C 28.28 36.12 *L 0.00139 *D NOR2XL
*I *83:B I *C 20.44 36.12 *L 0.00139 *D NOR2XL
*I *82:B I *C 27.72 15.96 *L 0.00139 *D NOR2XL
*I *80:B I *C 62.44 26.04 *L 0.00139 *D NOR2XL
*I *68:Q O *C 40.41 36.68 *L 0 *D OR2X3

*CAP
1 *84:B 0.000420315
2 *83:B 0.00031985
3 *82:B 0.000277132
4 *80:B 7.48497e-05
5 *68:Q 0.000331463
6 *39:5 0.00168448
7 *39:6 9.67608e-05
8 *39:7 0.000309778
9 *39:8 0.00236467
10 *39:9 0.000101499
11 *39:10 0.000300858
12 *39:11 0.000276784
13 *39:12 0.000931159
14 *39:13 0.000101855
15 *39:14 0.00027269
16 *39:15 0.00209465
17 *39:16 0.000467729
18 *39:17 0.000252053
19 *39:18 0.000659878
20 *39:19 0.000101499
21 *39:20 0.000346244
22 *39:21 0.000890547
23 *39:22 6.87991e-05

*RES
1 *68:Q *39:10 0.604511
2 *39:5 *39:6 2.4196
3 *39:11 *39:23 0.148401
4 *39:16 *39:17 0.353237
5 *39:8 *39:9 0.148401
6 *39:17 *39:24 0.148401
7 *84:B *39:16 0.691518
8 *80:B *39:5 0.176619
9 *39:23 *39:12 2.40159
10 *82:B *39:15 0.676863
11 *83:B *39:20 0.691518
12 *39:6 *39:7 0.341393
13 *39:24 *39:18 1.71881
14 *39:21 *39:22 0.105002
15 *39:14 *39:21 1.3989
16 *39:9 *39:10 0.341393
17 *39:12 *39:13 0.148401
18 *39:18 *39:19 0.148401
19 *39:7 *39:25 0.148401
20 *39:10 *39:11 0.353237
21 *39:15 *39:22 2.74297
22 *39:25 *39:8 6.15691
23 *39:14 *39:16 0.682786
24 *39:13 *39:14 0.341393
25 *39:19 *39:20 0.341393
*END

*D_NET *25 0.00582927

*CONN
*P *25 O *C 41.16 0 *L 0
*I *58:Q O *C 36.93 36.52 *L 0 *D CLKBUFX3

*CAP
1 *25 0.000300626
2 *25:2 0.000149594
3 *25:3 0.00046293
4 *25:4 0.00491612

*RES
1 *25:2 *25:3 0.48902
2 *58:Q *25:4 5.626
3 *25:2 *25:4 0.874529
4 *25 *25:3 0.15375
*END

*D_NET *4 0.0012116

*CONN
*I *89:Q O *C 16.14 25.96 *L 0 *D NOR2XL
*I *52:A I *C 21 24.92 *L 0.00219 *D CLKBUFX3

*CAP
1 *4:2 0.000146711
2 *4:3 0.000163466
3 *4:4 0.000265204
4 *4:5 9.70816e-05
5 *4:6 0.000539137

*RES
1 *4:2 *4:3 0.172507
2 *4:4 *4:5 0.120006
3 *4:7 *4:6 0.855043
4 *4:7 *4:2 0.15375
5 *4:6 *4:4 0.15375
6 *4:4 *89:Q 0.15375
7 *4:2 *52:A 0.3075
*END

*D_NET *40 0.00865056

*CONN
*I *89:B I *C 16.52 26.04 *L 0.00139 *D NOR2XL
*I *81:B I *C 33.32 26.04 *L 0.00139 *D NOR2XL
*I *79:B I *C 45.64 15.96 *L 0.00139 *D NOR2XL
*I *77:B I *C 42.28 26.04 *L 0.00139 *D NOR2XL
*I *67:Q O *C 25.29 28.28 *L 0 *D OR2X3

*CAP
1 *89:B 0.000438485
2 *81:B 0.000423095
3 *79:B 0.00104533
4 *77:B 0.000360266
5 *40:5 0.000135515
6 *40:6 0.000556849
7 *40:7 0.000248464
8 *40:8 0.000803793
9 *40:9 0.000129002
10 *40:10 0.000428802
11 *40:11 0.000816947
12 *40:12 0.000440429
13 *40:13 0.000644969
14 *40:14 0.000132271
15 *40:15 0.000176146
16 *40:16 0.000277426
17 *40:17 0.000160821
18 *40:18 0.000937816
19 *40:19 0.000494134

*RES
1 *40:12 *40:18 0.64277
2 *81:B *40:10 0.691518
3 *40:5 *40:6 0.670941
4 *40:16 *40:17 0.21601
5 *89:B *40:12 1.01826
6 *40:8 *40:9 0.148401
7 *40:6 *40:7 0.353237
8 *40:18 *40:19 1.1093
9 *79:B *40:20 1.48591
10 *40:5 *40:13 0.918877
11 *40:9 *40:10 0.347315
12 *40:20 *40:13 0.201007
13 *40:14 *40:19 0.629274
14 *40:7 *40:21 0.148401
15 *40:10 *40:11 1.2008
16 *40:11 *40:15 0.354757
17 *40:14 *40:15 0.0930953
18 *40:21 *40:8 2.0602
19 *77:B *40:6 0.691518
20 *40:19 *40:16 0.15375
21 *40:16 *67:Q 0.15375
*END

*D_NET *26 0.00242424

*CONN
*P *26 O *C 42.28 0 *L 0
*I *55:Q O *C 40.29 16.36 *L 0 *D CLKBUFX3

*CAP
1 *26 0.000280379
2 *55:Q 0.000132909
3 *26:2 0.000118767
4 *26:3 0.00189218

*RES
1 *55:Q *26:2 0.33547
2 *26:2 *26:3 2.65887
3 *26 *26:3 0.15375
*END

*D_NET *5 0.00249495

*CONN
*I *79:Q O *C 45.26 15.88 *L 0 *D NOR2XL
*I *53:A I *C 32.2 14.84 *L 0.00219 *D CLKBUFX3

*CAP
1 *79:Q 0.000125413
2 *5:2 0.000248685
3 *5:3 0.000139043
4 *5:4 0.000175676
5 *5:5 0.000205088
6 *5:6 0.00160104

*RES
1 *5:2 *5:3 0.172507
2 *5:4 *5:5 0.172507
3 *5:7 *5:6 2.1076
4 *5:7 *5:2 0.15375
5 *5:6 *5:4 0.15375
6 *5:2 *79:Q 0.15375
7 *5:4 *53:A 0.3075
*END

*D_NET *41 0.00793934

*CONN
*I *90:B I *C 57.96 36.12 *L 0.00139 *D NOR2XL
*I *87:B I *C 40.04 26.04 *L 0.00139 *D NOR2XL
*I *78:B I *C 37.8 26.04 *L 0.00139 *D NOR2XL
*I *76:B I *C 54.6 15.96 *L 0.00139 *D NOR2XL
*I *73:Q O *C 27.3 29.82 *L 0 *D NAND2XL

*CAP
1 *87:B 9.82425e-05
2 *78:B 0.000259171
3 *76:B 0.00203808
4 *73:Q 0.000208994
5 *41:5 0.000704839
6 *41:6 0.000850945
7 *41:7 0.000297134
8 *41:8 0.0013297
9 *41:9 0.00169907
10 *41:10 0.000453162

*RES
1 *41:6 *41:9 1.01231
2 *78:B *41:6 0.354757
3 *41:5 *41:10 0.72078
4 *90:B *41:5 0.921786
5 *73:Q *41:11 0.33547
6 *41:6 *41:12 0.100503
7 *41:9 *41:10 2.69263
8 *76:B *41:10 2.89962
9 *41:8 *41:9 1.92459
10 *41:8 *41:7 0.15375
11 *41:12 *87:B 0.15375
12 *41:7 *41:11 0.3075
*END

*D_NET *27 0.00329615

*CONN
*P *27 O *C 43.4 0 *L 0
*I *64:Q O *C 48.69 16.36 *L 0 *D CLKBUFX3

*CAP
1 *27 0.000279764
2 *27:2 0.0017448
3 *27:3 0.000767421
4 *27:4 0.000504168

*RES
1 *64:Q *27:2 2.16985
2 *27:3 *27:4 0.48902
3 *27:2 *27:3 1.16254
4 *27 *27:4 0.15375
*END

*D_NET *6 0.00684995

*CONN
*I *82:Q O *C 27.34 15.88 *L 0 *D NOR2XL
*I *54:A I *C 60.2 35 *L 0.00219 *D CLKBUFX3

*CAP
1 *82:Q 0.000102047
2 *6:2 0.000845047
3 *6:3 0.000297455
4 *6:4 0.00194754
5 *6:5 0.00348925
6 *6:6 0.000168614

*RES
1 *6:5 *6:6 0.177193
2 *54:A *6:2 1.26755
3 *6:3 *6:6 0.450761
4 *6:3 *6:4 2.40012
5 *6:2 *6:5 5.434
6 *6:4 *82:Q 0.15375
*END

*D_NET *42 0.0110889

*CONN
*I *88:B I *C 63.56 15.96 *L 0.00139 *D NOR2XL
*I *86:B I *C 31.08 26.04 *L 0.00139 *D NOR2XL
*I *85:B I *C 53.48 26.04 *L 0.00139 *D NOR2XL
*I *75:B I *C 18.76 15.96 *L 0.00139 *D NOR2XL
*I *74:Q O *C 27.58 29.82 *L 0 *D NAND2XL

*CAP
1 *88:B 0.000330741
2 *75:B 0.000329116
3 *74:Q 0.000370022
4 *42:5 0.000218486
5 *42:6 9.60422e-05
6 *42:7 0.00129856
7 *42:8 0.00134056
8 *42:9 0.00110632
9 *42:10 0.0007589
10 *42:11 0.000581192
11 *42:12 0.000111559
12 *42:13 0.000336869
13 *42:14 0.000353133
14 *42:15 0.000159407
15 *42:16 0.002245
16 *42:17 0.000135205
17 *42:18 0.000629149
18 *42:19 0.000688623

*RES
1 *42:20 *42:5 0.347315
2 *42:10 *42:21 0.148401
3 *42:15 *42:16 2.02658
4 *42:16 *42:18 1.35306
5 *74:Q *42:8 0.859404
6 *42:22 *42:8 2.90184
7 *88:B *42:15 0.537768
8 *42:21 *42:11 1.54811
9 *75:B *42:14 0.84756
10 *42:5 *42:6 0.148401
11 *42:17 *42:18 0.864041
12 *42:11 *42:12 0.148401
13 *42:6 *42:7 3.42577
14 *42:8 *42:19 1.01779
15 *42:9 *42:10 1.02418
16 *42:13 *42:14 0.700516
17 *42:7 *42:22 0.148401
18 *42:12 *42:13 0.341393
19 *42:9 *42:19 1.50681
20 *42:18 *85:B 0.15375
21 *42:19 *86:B 0.15375
22 *42:17 *42:20 0.15375
*END

*D_NET *28 0.00399315

*CONN
*P *28 O *C 44.52 0 *L 0
*I *56:Q O *C 46.45 26.44 *L 0 *D CLKBUFX3

*CAP
1 *28 0.000300664
2 *28:2 0.00265666
3 *28:3 0.000240548
4 *28:4 0.000795278

*RES
1 *56:Q *28:2 3.51391
2 *28:3 *28:4 0.864041
3 *28:2 *28:3 0.595514
4 *28 *28:4 0.15375
*END

*D_NET *7 0.00351083

*CONN
*I *85:Q O *C 53.1 25.96 *L 0 *D NOR2XL
*I *55:A I *C 39.48 14.84 *L 0.00219 *D CLKBUFX3

*CAP
1 *55:A 0.00120298
2 *7:2 0.000236404
3 *7:3 0.000177777
4 *7:4 0.00189367

*RES
1 *55:A *7:4 1.74757
2 *7:2 *7:4 2.50661
3 *7:2 *7:3 0.172507
4 *7:2 *85:Q 0.15375
*END

*D_NET *43 0.00564575

*CONN
*I *91:Q O *C 56.06 36.34 *L 0 *D INVXL
*I *72:B I *C 24.36 35.56 *L 0.00146 *D NAND2XL
*I *70:B I *C 15.4 35.56 *L 0.00146 *D NAND2XL

*CAP
1 *91:Q 0.000378367
2 *72:B 0.000425933
3 *70:B 0.00022894
4 *43:3 0.000448847
5 *43:4 0.000125261
6 *43:5 0.000831796
7 *43:6 0.00159615
8 *43:7 0.00121931
9 *43:8 9.95376e-05
10 *43:9 0.000291606

*RES
1 *43:6 *43:10 0.177193
2 *91:Q *43:4 0.542267
3 *43:8 *43:9 0.384018
4 *72:B *43:9 0.787523
5 *43:3 *43:5 0.64277
6 *43:10 *43:7 2.2171
7 *43:4 *43:6 3.03389
8 *43:7 *43:8 0.177193
9 *70:B *43:3 0.506167
10 *43:5 *43:9 1.40181
*END

*D_NET *29 0.00364889

*CONN
*P *29 O *C 45.64 0 *L 0
*I *61:Q O *C 57.65 16.36 *L 0 *D CLKBUFX3

*CAP
1 *29 0.000297843
2 *29:2 0.00137752
3 *29:3 0.00135278
4 *29:4 0.000620743

*RES
1 *61:Q *29:2 1.97784
2 *29:3 *29:4 0.68103
3 *29:2 *29:3 2.3146
4 *29 *29:4 0.15375
*END

*D_NET *8 0.00281511

*CONN
*I *90:Q O *C 57.58 36.04 *L 0 *D NOR2XL
*I *56:A I *C 45.64 24.92 *L 0.00219 *D CLKBUFX3

*CAP
1 *56:A 0.00107133
2 *8:2 0.00024294
3 *8:3 0.000166248
4 *8:4 0.00133459

*RES
1 *56:A *8:4 1.74757
2 *8:2 *8:3 0.172507
3 *8:4 *8:5 2.06484
4 *8:5 *8:2 0.15375
5 *8:2 *90:Q 0.15375
*END

*D_NET *44 0.0065807

*CONN
*I *87:A I *C 40.86 25.77 *L 0.00118 *D NOR2XL
*I *86:A I *C 31.9 25.77 *L 0.00118 *D NOR2XL
*I *83:A I *C 21.26 35.85 *L 0.00118 *D NOR2XL
*I *77:A I *C 43.1 25.77 *L 0.00118 *D NOR2XL
*I *69:Q O *C 25.62 25.06 *L 0 *D NAND2XL

*CAP
1 *87:A 0.000270185
2 *86:A 0.000102296
3 *83:A 7.29986e-05
4 *77:A 0.000344195
5 *69:Q 0.000444261
6 *44:5 0.000157853
7 *44:6 0.000476373
8 *44:7 0.000938126
9 *44:8 0.000547758
10 *44:9 0.000140149
11 *44:10 0.00140583
12 *44:11 9.08695e-05
13 *44:12 0.00112719
14 *44:13 0.00046262

*RES
1 *44:7 *44:11 1.00879
2 *44:8 *44:12 0.441764
3 *69:Q *44:6 0.546766
4 *44:5 *44:13 0.52877
5 *77:A *44:5 0.441764
6 *44:7 *44:9 0.201007
7 *44:10 *44:12 0.960046
8 *87:A *44:13 0.595514
9 *44:6 *44:10 0.441764
10 *44:10 *44:11 1.56456
11 *44:12 *44:13 1.44907
12 *44:8 *86:A 0.15375
13 *44:9 *83:A 0.15375
*END

*D_NET *30 0.00402481

*CONN
*P *30 O *C 46.76 0 *L 0
*I *53:Q O *C 33.01 16.36 *L 0 *D CLKBUFX3

*CAP
1 *30 0.000356802
2 *53:Q 9.20241e-05
3 *30:2 0.00252211
4 *30:3 0.000151487
5 *30:4 8.19825e-05
6 *30:5 0.000820406

*RES
1 *30:2 *30:3 1.16105
2 *30:2 *30:4 2.35286
3 *30:4 *30:5 1.49781
4 *30:5 *30 0.15375
5 *30:3 *53:Q 0.15375
*END

*D_NET *9 0.00476411

*CONN
*I *70:A I *C 14.28 35 *L 0.00137 *D NAND2XL
*I *69:A I *C 24.36 24.92 *L 0.00137 *D NAND2XL
*I *66:Q O *C 36.26 23.94 *L 0 *D CLKINVX1

*CAP
1 *9:3 0.000369912
2 *9:4 0.000156383
3 *9:5 0.00163366
4 *9:6 0.00203745
5 *9:7 0.00045544
6 *9:8 0.000111264

*RES
1 *9:5 *9:8 2.16985
2 *9:5 *9:7 0.393016
3 *9:4 *9:7 0.576027
4 *9:4 *9:6 2.02658
5 *70:A *9:6 1.3058
6 *9:8 *9:3 0.15375
7 *9:3 *66:Q 0.15375
8 *9:7 *69:A 0.15375
*END

*D_NET *45 0.0093163

*CONN
*I *88:A I *C 62.74 15.69 *L 0.00118 *D NOR2XL
*I *84:A I *C 29.1 35.85 *L 0.00118 *D NOR2XL
*I *81:A I *C 34.14 25.77 *L 0.00118 *D NOR2XL
*I *78:A I *C 38.62 25.77 *L 0.00118 *D NOR2XL
*I *70:Q O *C 15.54 35.14 *L 0 *D NAND2XL

*CAP
1 *88:A 8.86946e-05
2 *84:A 0.000214096
3 *70:Q 0.00011519
4 *45:5 0.000182819
5 *45:6 0.00159668
6 *45:7 0.000265373
7 *45:8 0.00126511
8 *45:9 0.00131187
9 *45:10 9.09254e-05
10 *45:11 0.000881232
11 *45:12 0.000532879
12 *45:13 0.00277143

*RES
1 *45:6 *45:12 2.45786
2 *84:A *45:12 0.499509
3 *45:5 *45:13 4.08094
4 *45:11 *45:13 0.768036
5 *45:10 *45:12 0.471025
6 *78:A *45:13 0.499509
7 *45:5 *45:8 1.54507
8 *45:6 *45:7 0.297011
9 *45:9 *45:11 0.384018
10 *45:9 *45:10 2.4286
11 *81:A *45:11 0.499509
12 *45:7 *70:Q 0.15375
13 *45:8 *88:A 0.15375
*END

*D_NET *31 0.00543803

*CONN
*P *31 O *C 47.88 0 *L 0
*I *62:Q O *C 65.49 26.44 *L 0 *D CLKBUFX3

*CAP
1 *31 0.00032083
2 *31:2 0.00108932
3 *31:3 0.0021061
4 *31:4 0.00192178

*RES
1 *62:Q *31:2 1.59382
2 *31:3 *31:4 2.94688
3 *31:2 *31:3 3.12089
4 *31:4 *31 0.15375
*END

*D_NET *10 0.00327617

*CONN
*I *77:Q O *C 42.66 25.96 *L 0 *D NOR2XL
*I *57:A I *C 32.2 35 *L 0.00219 *D CLKBUFX3

*CAP
1 *10:2 0.000408845
2 *10:3 0.00277583
3 *10:4 9.14916e-05

*RES
1 *57:A *10:3 1.83458
2 *10:3 *10:4 1.98683
3 *10:4 *10:2 0.15375
4 *10:2 *77:Q 0.15375
*END

*D_NET *46 0.0104239

*CONN
*I *89:A I *C 15.7 25.77 *L 0.00118 *D NOR2XL
*I *80:A I *C 61.62 25.77 *L 0.00118 *D NOR2XL
*I *76:A I *C 53.78 15.69 *L 0.00118 *D NOR2XL
*I *75:A I *C 17.94 15.69 *L 0.00118 *D NOR2XL
*I *71:Q O *C 36.82 14.98 *L 0 *D NAND2XL

*CAP
1 *80:A 8.97841e-05
2 *76:A 8.66201e-05
3 *75:A 8.69719e-05
4 *46:5 0.00158696
5 *46:6 0.000444955
6 *46:7 0.00230536
7 *46:8 0.000125012
8 *46:9 0.00329721
9 *46:10 0.000362577
10 *46:11 0.000166044
11 *46:12 0.000118758
12 *46:13 0.00011532
13 *46:14 0.000124627
14 *46:15 0.000247779
15 *46:16 0.00126594

*RES
1 *46:8 *46:9 1.35306
2 *46:5 *46:11 2.02509
3 *46:12 *46:16 0.450761
4 *46:7 *46:16 3.03389
5 *46:9 *46:14 3.4179
6 *46:5 *46:16 1.48882
7 *46:8 *46:15 0.441764
8 *46:6 *46:7 0.316514
9 *46:9 *46:13 0.105002
10 *46:14 *46:6 0.15375
11 *46:15 *46:10 0.15375
12 *46:6 *71:Q 0.15375
13 *46:10 *89:A 0.15375
14 *46:11 *80:A 0.15375
15 *46:12 *76:A 0.15375
16 *46:13 *75:A 0.15375
*END

*D_NET *32 0.00564716

*CONN
*P *32 O *C 49 0 *L 0
*I *54:Q O *C 61.01 36.52 *L 0 *D CLKBUFX3

*CAP
1 *32 0.000302818
2 *32:2 0.00129004
3 *32:3 0.00134551
4 *32:4 0.00270879

*RES
1 *54:Q *32:2 1.68982
2 *32:3 *32:4 4.57896
3 *32:2 *32:3 2.16085
4 *32:4 *32 0.15375
*END

*D_NET *11 0.00259692

*CONN
*I *83:Q O *C 20.82 36.04 *L 0 *D NOR2XL
*I *58:A I *C 36.12 35 *L 0.00219 *D CLKBUFX3

*CAP
1 *11:2 0.000412941
2 *11:3 0.000166691
3 *11:4 0.000203505
4 *11:5 0.00181378

*RES
1 *58:A *11:2 0.595514
2 *11:3 *11:4 0.172507
3 *11:2 *11:5 2.64537
4 *11:5 *11:3 0.15375
5 *11:3 *83:Q 0.15375
*END

*D_NET *47 0.0119096

*CONN
*I *90:A I *C 57.14 35.85 *L 0.00118 *D NOR2XL
*I *85:A I *C 52.66 25.77 *L 0.00118 *D NOR2XL
*I *82:A I *C 26.9 15.69 *L 0.00118 *D NOR2XL
*I *79:A I *C 44.82 15.69 *L 0.00118 *D NOR2XL
*I *72:Q O *C 24.5 35.14 *L 0 *D NAND2XL

*CAP
1 *85:A 0.00014071
2 *79:A 9.23698e-05
3 *72:Q 0.000231871
4 *47:5 0.000176945
5 *47:6 0.000394266
6 *47:7 0.000787648
7 *47:8 0.000897417
8 *47:9 0.000179991
9 *47:10 0.00310692
10 *47:11 0.000260056
11 *47:12 0.000395052
12 *47:13 0.00161227
13 *47:14 0.000478643
14 *47:15 0.00104437
15 *47:16 0.000268426
16 *47:17 0.000282375
17 *47:18 0.000103729
18 *47:19 0.000180923
19 *47:20 0.00102343
20 *47:21 0.000162398
21 *47:22 8.97945e-05

*RES
1 *47:8 *47:15 1.24806
2 *47:7 *47:15 1.52708
3 *47:18 *47:19 0.172507
4 *47:14 *47:20 0.64277
5 *47:9 *47:10 1.44907
6 *47:9 *47:13 1.06654
7 *47:8 *47:20 1.54656
8 *47:5 *47:13 1.41081
9 *47:6 *47:7 1.4123
10 *72:Q *47:5 0.506167
11 *47:10 *47:11 0.297011
12 *47:21 *47:22 0.196508
13 *47:16 *47:17 0.240011
14 *90:A *47:6 0.345759
15 *47:10 *47:20 3.12989
16 *85:A *47:15 0.64297
17 *47:21 *47:18 0.15375
18 *47:22 *47:16 0.15375
19 *47:18 *47:12 0.15375
20 *47:16 *47:11 0.15375
21 *47:12 *82:A 0.15375
22 *47:14 *79:A 0.15375
*END

*D_NET *33 0.00505489

*CONN
*P *33 O *C 50.12 0 *L 0
*I *63:Q O *C 24.05 16.36 *L 0 *D CLKBUFX3

*CAP
1 *33 0.000313244
2 *63:Q 9.21513e-05
3 *33:2 0.000130856
4 *33:3 0.00114901
5 *33:4 0.00322802
6 *33:5 0.000141608

*RES
1 *33:2 *33:3 1.53607
2 *33:4 *33:5 0.969043
3 *33:2 *33:4 4.61871
4 *33 *33:3 0.15375
5 *33:5 *63:Q 0.15375
*END

*D_NET *12 0.00627323

*CONN
*I *86:Q O *C 31.46 25.96 *L 0 *D NOR2XL
*I *59:A I *C 65.8 14.84 *L 0.00219 *D CLKBUFX3

*CAP
1 *86:Q 0.000175361
2 *12:2 0.000125529
3 *12:3 0.000470303
4 *12:4 0.00550204

*RES
1 *86:Q *12:2 0.33547
2 *59:A *12:3 0.691518
3 *12:3 *12:4 5.96277
4 *12:2 *12:4 2.08284
*END

*D_NET *48 0.00196046

*CONN
*I *92:Q O *C 26.26 36.34 *L 0 *D INVXL
*I *73:A I *C 26.04 29.96 *L 0.00137 *D NAND2XL
*I *67:B I *C 24.36 29.96 *L 0.00222 *D OR2X3

*CAP
1 *92:Q 0.000143169
2 *48:3 0.00011481
3 *48:4 0.00024036
4 *48:5 0.000200527
5 *48:6 0.000167434
6 *48:7 0.000453887
7 *48:8 1.23005e-06
8 *48:9 0.00063904

*RES
1 *48:7 *48:10 0.34126
2 *48:7 *48:9 0.0542155
3 *48:4 *48:5 0.21601
4 *48:3 *48:6 0.34285
5 *48:8 *48:9 0.657215
6 *92:Q *48:3 0.33547
7 *48:6 *48:8 0.0587144
8 *48:10 *48:4 0.15375
9 *48:4 *73:A 0.15375
10 *48:9 *67:B 0.3075
*END

