*SPEF "IEEE 1481-1998"
*DESIGN "cur_dec"
*DATE "Tue Aug 29 16:04:40 2017"
*VENDOR "Cadence Design Systems, Inc."
*PROGRAM "Innovus"
*VERSION "15.28-s017_1"
*DESIGN_FLOW "PIN_CAP NONE" "NAME_SCOPE LOCAL"
*DIVIDER /
*DELIMITER :
*BUS_DELIMITER []
*T_UNIT 1 NS
*C_UNIT 1 PF
*R_UNIT 1 OHM
*L_UNIT 1 HENRY

// MMMC spef file for corner 'ams_rc_corner_maxCaR2'

*NAME_MAP

*1 CTS_80
*2 CTS_79
*3 CTS_78
*4 CTS_77
*5 CTS_76
*6 CTS_75
*7 CTS_74
*8 CTS_73
*9 sll_18_12/CTS_71
*10 CTS_72
*11 CTS_71
*12 CTS_70
*13 CTS_69
*14 CTS_68
*15 CTS_67
*16 CTS_66
*17 CTS_65
*18 out[15]
*19 out[14]
*20 out[13]
*21 out[12]
*22 out[11]
*23 out[10]
*24 out[9]
*25 out[8]
*26 out[7]
*27 out[6]
*28 out[5]
*29 out[4]
*30 out[3]
*31 out[2]
*32 out[1]
*33 out[0]
*34 in[3]
*35 in[2]
*36 in[1]
*37 in[0]
*38 logic_1_1_net
*39 sll_18_12/n_15
*40 sll_18_12/n_13
*41 sll_18_12/n_12
*42 sll_18_12/n_11
*43 sll_18_12/n_6
*44 sll_18_12/n_5
*45 sll_18_12/n_4
*46 sll_18_12/n_3
*47 sll_18_12/n_2
*48 sll_18_12/n_0
*49 CTS_ccl_BUF_in_0__G0_L3_8
*50 CTS_ccl_BUF_in_0__G0_L3_7
*51 CTS_ccl_BUF_in_0__G0_L3_6
*52 CTS_ccl_BUF_in_0__G0_L3_5
*53 CTS_ccl_BUF_in_0__G0_L3_4
*54 CTS_ccl_BUF_in_0__G0_L3_3
*55 CTS_ccl_BUF_in_0__G0_L3_2
*56 CTS_ccl_BUF_in_0__G0_L3_1
*57 CTS_ccl_BUF_in_0__G0_L4_8
*58 CTS_ccl_BUF_in_0__G0_L4_7
*59 CTS_ccl_BUF_in_0__G0_L4_6
*60 CTS_ccl_BUF_in_0__G0_L4_5
*61 CTS_ccl_BUF_in_0__G0_L4_4
*62 CTS_ccl_BUF_in_0__G0_L4_3
*63 CTS_ccl_BUF_in_0__G0_L4_2
*64 CTS_ccl_BUF_in_0__G0_L4_1
*65 tie_1_cell
*66 sll_18_12/CTS_cex_INV_in_0__G0_L1_1
*67 sll_18_12/g68
*68 sll_18_12/g70
*69 sll_18_12/g178
*70 sll_18_12/g179
*71 sll_18_12/g180
*72 sll_18_12/g181
*73 sll_18_12/g67
*74 sll_18_12/g69
*75 sll_18_12/g162
*76 sll_18_12/g163
*77 sll_18_12/g164
*78 sll_18_12/g165
*79 sll_18_12/g166
*80 sll_18_12/g167
*81 sll_18_12/g168
*82 sll_18_12/g169
*83 sll_18_12/g170
*84 sll_18_12/g171
*85 sll_18_12/g172
*86 sll_18_12/g173
*87 sll_18_12/g174
*88 sll_18_12/g175
*89 sll_18_12/g176
*90 sll_18_12/g177
*91 sll_18_12/g64
*92 sll_18_12/g71


*PORTS

*18 O *C 33.32 0
*19 O *C 34.44 0
*20 O *C 35.56 0
*21 O *C 36.68 0
*22 O *C 37.8 0
*23 O *C 38.92 0
*24 O *C 40.04 0
*25 O *C 41.16 0
*26 O *C 42.28 0
*27 O *C 43.4 0
*28 O *C 44.52 0
*29 O *C 45.64 0
*30 O *C 46.76 0
*31 O *C 47.88 0
*32 O *C 49 0
*33 O *C 50.12 0
*34 I *C 42.28 49.84
*35 I *C 41.16 49.84
*36 I *C 40.04 49.84
*37 I *C 38.92 49.84


*D_NET *18 0.00746524

*CONN
*P *18 O *C 33.32 0 *L 0
*I *49:Q O *C 68.85 36.52 *L 0 *D CLKBUFX3

*CAP
1 *18 0.000210538
2 *18:2 0.00372565
3 *18:3 0.00332238
4 *18:4 0.000206675

*RES
1 *49:Q *18:2 14.3804
2 *18:3 *18:4 0.426699
3 *18:2 *18:3 17.1253
4 *18 *18:4 2.1525
*END

*D_NET *34 0.0101447

*CONN
*P *34 I *C 42.28 49.84 *L 0
*I *91:A I *C 55.72 36.12 *L 0.00138 *D INVXL
*I *71:B I *C 36.68 15.4 *L 0.00146 *D NAND2XL
*I *69:B I *C 25.48 25.48 *L 0.00146 *D NAND2XL

*CAP
1 *34 0.000533407
2 *91:A 0.000184945
3 *71:B 0.000849737
4 *69:B 0.000431496
5 *34:4 9.09635e-05
6 *34:5 0.000568611
7 *34:6 0.000330076
8 *34:7 0.00152308
9 *34:8 0.00167717
10 *34:9 0.000105701
11 *34:10 9.91925e-05
12 *34:11 0.00126075
13 *34:12 0.000761539
14 *34:13 7.63599e-05
15 *34:14 0.00165165

*RES
1 *34:10 *34:14 4.70648
2 *91:A *34:15 0.883666
3 *34:15 *34:4 0.253155
4 *34 *34:10 4.19049
5 *34:6 *34:13 2.75772
6 *34:6 *34:7 5.81365
7 *34:16 *34:14 2.73488
8 *34:4 *34:5 2.6409
9 *34:11 *34:14 3.45841
10 *34:7 *34:8 4.06653
11 *34:17 *34:11 0.2229
12 *34:17 *34:12 1.80274
13 *71:B *34:7 5.93539
14 *34:5 *34:16 0.253155
15 *34:8 *34:9 6.36209
16 *34:12 *34:13 0.2229
17 *69:B *34:9 1.73702
*END

*D_NET *13 0.00475864

*CONN
*I *87:Q O *C 40.42 25.96 *L 0 *D NOR2XL
*I *60:A I *C 14.28 14.84 *L 0.00219 *D CLKBUFX3

*CAP
1 *87:Q 0.000218158
2 *60:A 0.000303883
3 *13:2 0.000940686
4 *13:3 0.00329591

*RES
1 *60:A *13:3 5.1202
2 *87:Q *13:2 4.41339
3 *13:2 *13:3 13.8645
*END

*D_NET *20 0.0057738

*CONN
*P *20 O *C 35.56 0 *L 0
*I *50:Q O *C 56.53 26.44 *L 0 *D CLKBUFX3

*CAP
1 *20 0.000344638
2 *20:2 0.000955542
3 *20:3 0.00253594
4 *20:4 0.00193768

*RES
1 *50:Q *20:2 4.39429
2 *20:3 *20:4 8.87787
3 *20:2 *20:3 9.87776
4 *20:4 *20 2.1525
*END

*D_NET *36 0.00616684

*CONN
*P *36 I *C 40.04 49.84 *L 0
*I *92:A I *C 26.6 36.12 *L 0.00138 *D INVXL
*I *74:B I *C 27.72 29.4 *L 0.00146 *D NAND2XL
*I *68:A I *C 38.92 35 *L 0.00195 *D OR2X3

*CAP
1 *36 0.000201305
2 *92:A 0.000143841
3 *74:B 0.000287011
4 *68:A 0.000426249
5 *36:4 0.000243629
6 *36:5 0.000340492
7 *36:6 0.000310588
8 *36:7 0.000242292
9 *36:8 6.81804e-05
10 *36:9 0.000943786
11 *36:10 0.000479165
12 *36:11 2.59113e-05
13 *36:12 0.00126862
14 *36:13 0.000521825
15 *36:14 0.000398981
16 *36:15 6.49593e-05
17 *36:16 0.000200003

*RES
1 *36:5 *36:12 8.17718
2 *36:13 *36:14 1.21662
3 *36:7 *36:8 0.2229
4 *36:4 *36:7 0.605222
5 *36:15 *36:16 0.376146
6 *36:10 *36:11 0.179228
7 *36:10 *36:17 0.783745
8 *36:12 *36:14 0.611397
9 *36:18 *36:6 0.2229
10 *36 *36:15 0.2229
11 *36:19 *36:9 0.2229
12 *36:4 *36:16 2.5601
13 *36:5 *36:19 0.605222
14 *36:5 *36:6 0.605222
15 *74:B *36:11 4.65093
16 *36:8 *36:9 2.41414
17 *36:17 *36:13 0.2229
18 *68:A *36:18 2.54437
19 *92:A *36:14 2.72477
*END

*D_NET *15 0.00422247

*CONN
*I *81:Q O *C 33.7 25.96 *L 0 *D NOR2XL
*I *62:A I *C 64.68 24.92 *L 0.00219 *D CLKBUFX3

*CAP
1 *81:Q 0.000181976
2 *15:2 0.000555346
3 *15:3 0.00348515

*RES
1 *62:A *15:2 5.324
2 *81:Q *15:3 2.5792
3 *15:2 *15:3 15.2911
*END

*D_NET *21 0.00422363

*CONN
*P *21 O *C 36.68 0 *L 0
*I *60:Q O *C 15.09 16.36 *L 0 *D CLKBUFX3

*CAP
1 *21 0.000273675
2 *60:Q 6.57072e-05
3 *21:2 0.000146454
4 *21:3 0.000485222
5 *21:4 0.00312287
6 *21:5 0.000129704

*RES
1 *21:2 *21:3 1.0381
2 *21:4 *21:5 4.29888
3 *21:2 *21:4 11.6227
4 *21 *21:3 2.1525
5 *21:5 *60:Q 2.1525
*END

*D_NET *37 0.00746415

*CONN
*P *37 I *C 38.92 49.84 *L 0
*I *72:A I *C 23.24 35 *L 0.00137 *D NAND2XL
*I *71:A I *C 35.56 14.84 *L 0.00137 *D NAND2XL
*I *66:A I *C 36.68 24.92 *L 0.00193 *D CLKINVX1

*CAP
1 *37 0.000184864
2 *72:A 0.00171561
3 *71:A 0.0014124
4 *37:4 0.000163988
5 *37:5 0.000191358
6 *37:6 0.000334221
7 *37:7 0.00105311
8 *37:8 0.000241411
9 *37:9 0.00216719

*RES
1 *37:7 *37:8 7.04368
2 *71:A *37:6 5.82088
3 *37:6 *37:9 2.5601
4 *37:4 *37:5 0.509498
5 *37 *37:8 0.815197
6 *37:8 *37:9 13.0684
7 *72:A *37:7 7.24748
8 *37:9 *37:4 2.1525
9 *37:4 *66:A 4.305
*END

*D_NET *16 0.00354741

*CONN
*I *84:Q O *C 28.66 36.04 *L 0 *D NOR2XL
*I *63:A I *C 23.24 14.84 *L 0.00219 *D CLKBUFX3

*CAP
1 *84:Q 0.000202487
2 *63:A 0.00219015
3 *16:2 0.000260791
4 *16:3 0.000893983

*RES
1 *63:A *16:3 10.6228
2 *84:Q *16:2 2.5792
3 *16:2 *16:3 6.52769
*END

*D_NET *22 0.00498756

*CONN
*P *22 O *C 37.8 0 *L 0
*I *52:Q O *C 21.81 26.44 *L 0 *D CLKBUFX3

*CAP
1 *22 0.00028869
2 *22:2 0.00239727
3 *22:3 8.63069e-05
4 *22:4 0.00221529

*RES
1 *52:Q *22:2 3.98669
2 *22:3 *22:4 9.30457
3 *22:2 *22:3 7.63597
4 *22:4 *22 2.1525
*END

*D_NET *1 0.00796284

*CONN
*I *75:Q O *C 18.38 15.88 *L 0 *D NOR2XL
*I *49:A I *C 68.04 35 *L 0.00219 *D CLKBUFX3

*CAP
1 *75:Q 0.00255908
2 *1:2 0.000145618
3 *1:3 3.19587e-05
4 *1:4 0.000126776
5 *1:5 0.00509941

*RES
1 *75:Q *1:5 9.71217
2 *1:2 *1:3 0.2229
3 *1:3 *1:4 0.143299
4 *1:2 *1:5 22.424
5 *1:3 *49:A 4.305
*END

*D_NET *17 0.00252481

*CONN
*I *88:Q O *C 63.18 15.88 *L 0 *D NOR2XL
*I *64:A I *C 47.88 14.84 *L 0.00219 *D CLKBUFX3

*CAP
1 *88:Q 0.000109391
2 *17:2 0.000209255
3 *17:3 0.00014145
4 *17:4 0.00015024
5 *17:5 0.000183341
6 *17:6 0.00173113

*RES
1 *17:2 *17:3 0.366199
2 *17:4 *17:5 0.366199
3 *17:7 *17:6 5.27968
4 *17:7 *17:2 2.1525
5 *17:6 *17:4 2.1525
6 *17:2 *88:Q 2.1525
7 *17:4 *64:A 4.305
*END

*D_NET *23 0.00539703

*CONN
*P *23 O *C 38.92 0 *L 0
*I *57:Q O *C 33.01 36.52 *L 0 *D CLKBUFX3

*CAP
1 *23 0.000303632
2 *57:Q 8.31373e-05
3 *23:2 0.00171231
4 *23:3 0.000164102
5 *23:4 9.49434e-05
6 *23:5 0.00303891

*RES
1 *23:2 *23:3 2.66849
2 *23:2 *23:4 3.76379
3 *23:4 *23:5 12.1578
4 *23:5 *23 2.1525
5 *23:3 *57:Q 2.1525
*END

*D_NET *2 0.00178706

*CONN
*I *76:Q O *C 54.22 15.88 *L 0 *D NOR2XL
*I *50:A I *C 55.72 24.92 *L 0.00219 *D CLKBUFX3

*CAP
1 *76:Q 0.00019015
2 *2:2 0.00159691

*RES
1 *76:Q *2:2 0.863461
2 *50:A *2:2 10.3297
*END

*D_NET *24 0.00688946

*CONN
*P *24 O *C 40.04 0 *L 0
*I *51:Q O *C 64.93 36.52 *L 0 *D CLKBUFX3

*CAP
1 *24 0.000319788
2 *24:2 0.00107613
3 *24:3 0.00284542
4 *24:4 0.00264812

*RES
1 *51:Q *24:2 4.80189
2 *24:3 *24:4 12.1387
3 *24:2 *24:3 11.3044
4 *24:4 *24 2.1525
*END

*D_NET *3 0.0021573

*CONN
*I *80:Q O *C 62.06 25.96 *L 0 *D NOR2XL
*I *51:A I *C 64.12 35 *L 0.00219 *D CLKBUFX3

*CAP
1 *80:Q 0.000357343
2 *3:2 0.00136177
3 *3:3 0.000438183

*RES
1 *51:A *3:2 7.56579
2 *80:Q *3:3 2.5792
3 *3:2 *3:3 5.1011
*END

*D_NET *39 0.0125379

*CONN
*I *84:B I *C 28.28 36.12 *L 0.00139 *D NOR2XL
*I *83:B I *C 20.44 36.12 *L 0.00139 *D NOR2XL
*I *82:B I *C 27.72 15.96 *L 0.00139 *D NOR2XL
*I *80:B I *C 62.44 26.04 *L 0.00139 *D NOR2XL
*I *68:Q O *C 40.41 36.68 *L 0 *D OR2X3

*CAP
1 *84:B 0.000398349
2 *83:B 0.000345233
3 *82:B 0.000271812
4 *80:B 6.89607e-05
5 *68:Q 0.000355314
6 *39:5 0.00172091
7 *39:6 9.69625e-05
8 *39:7 0.000285292
9 *39:8 0.00225445
10 *39:9 0.000103376
11 *39:10 0.000291855
12 *39:11 0.000269981
13 *39:12 0.000900584
14 *39:13 0.000102615
15 *39:14 0.000254932
16 *39:15 0.00209924
17 *39:16 0.000431363
18 *39:17 0.000240384
19 *39:18 0.000641919
20 *39:19 0.000103376
21 *39:20 0.000333458
22 *39:21 0.000889995
23 *39:22 7.7578e-05

*RES
1 *68:Q *39:10 4.9355
2 *39:5 *39:6 8.78858
3 *39:11 *39:23 0.253155
4 *39:16 *39:17 0.602581
5 *39:8 *39:9 0.253155
6 *39:17 *39:24 0.253155
7 *84:B *39:16 5.1202
8 *80:B *39:5 0.30129
9 *39:23 *39:12 4.09684
10 *82:B *39:15 1.15465
11 *83:B *39:20 5.1202
12 *39:6 *39:7 0.582376
13 *39:24 *39:18 2.93208
14 *39:21 *39:22 0.2229
15 *39:14 *39:21 4.79571
16 *39:9 *39:10 0.582376
17 *39:12 *39:13 0.253155
18 *39:18 *39:19 0.253155
19 *39:7 *39:25 0.253155
20 *39:10 *39:11 0.602581
21 *39:15 *39:22 7.64889
22 *39:25 *39:8 10.503
23 *39:14 *39:16 1.16475
24 *39:13 *39:14 0.582376
25 *39:19 *39:20 0.582376
*END

*D_NET *25 0.00606193

*CONN
*P *25 O *C 41.16 0 *L 0
*I *58:Q O *C 36.93 36.52 *L 0 *D CLKBUFX3

*CAP
1 *25 0.000274258
2 *25:2 0.000160812
3 *25:3 0.00046605
4 *25:4 0.00516081

*RES
1 *25:2 *25:3 1.0381
2 *58:Q *25:4 13.7691
3 *25:2 *25:4 5.50869
4 *25 *25:3 2.1525
*END

*D_NET *4 0.00121299

*CONN
*I *89:Q O *C 16.14 25.96 *L 0 *D NOR2XL
*I *52:A I *C 21 24.92 *L 0.00219 *D CLKBUFX3

*CAP
1 *4:2 0.0001561
2 *4:3 0.000170152
3 *4:4 0.00026306
4 *4:5 0.000101221
5 *4:6 0.000522456

*RES
1 *4:2 *4:3 0.366199
2 *4:4 *4:5 0.254749
3 *4:7 *4:6 1.81509
4 *4:7 *4:2 2.1525
5 *4:6 *4:4 2.1525
6 *4:4 *89:Q 2.1525
7 *4:2 *52:A 4.305
*END

*D_NET *40 0.00848195

*CONN
*I *89:B I *C 16.52 26.04 *L 0.00139 *D NOR2XL
*I *81:B I *C 33.32 26.04 *L 0.00139 *D NOR2XL
*I *79:B I *C 45.64 15.96 *L 0.00139 *D NOR2XL
*I *77:B I *C 42.28 26.04 *L 0.00139 *D NOR2XL
*I *67:Q O *C 25.29 28.28 *L 0 *D OR2X3

*CAP
1 *89:B 0.000427044
2 *81:B 0.000416356
3 *79:B 0.00108153
4 *77:B 0.000346935
5 *40:5 0.000147092
6 *40:6 0.000518269
7 *40:7 0.000236453
8 *40:8 0.000783257
9 *40:9 0.000139956
10 *40:10 0.000396375
11 *40:11 0.000779732
12 *40:12 0.000449352
13 *40:13 0.000671276
14 *40:14 0.000126766
15 *40:15 0.000197833
16 *40:16 0.000275785
17 *40:17 0.000164351
18 *40:18 0.000872825
19 *40:19 0.000450762

*RES
1 *40:12 *40:18 3.1906
2 *81:B *40:10 5.1202
3 *40:5 *40:6 1.14455
4 *40:16 *40:17 0.458548
5 *89:B *40:12 1.73702
6 *40:8 *40:9 0.253155
7 *40:6 *40:7 0.602581
8 *40:18 *40:19 4.18094
9 *79:B *40:20 4.98041
10 *40:5 *40:13 3.77672
11 *40:9 *40:10 0.592478
12 *40:20 *40:13 0.426699
13 *40:14 *40:19 3.16195
14 *40:7 *40:21 0.253155
15 *40:10 *40:11 2.04842
16 *40:11 *40:15 2.5792
17 *40:14 *40:15 0.197623
18 *40:21 *40:8 3.51446
19 *77:B *40:6 5.1202
20 *40:19 *40:16 2.1525
21 *40:16 *67:Q 2.1525
*END

*D_NET *26 0.00252805

*CONN
*P *26 O *C 42.28 0 *L 0
*I *55:Q O *C 40.29 16.36 *L 0 *D CLKBUFX3

*CAP
1 *26 0.00025727
2 *55:Q 0.000124923
3 *26:2 0.000120912
4 *26:3 0.00202495

*RES
1 *55:Q *26:2 0.572273
2 *26:2 *26:3 7.47038
3 *26 *26:3 2.1525
*END

*D_NET *5 0.00246789

*CONN
*I *79:Q O *C 45.26 15.88 *L 0 *D NOR2XL
*I *53:A I *C 32.2 14.84 *L 0.00219 *D CLKBUFX3

*CAP
1 *79:Q 0.000109833
2 *5:2 0.000229823
3 *5:3 0.00014636
4 *5:4 0.000182722
5 *5:5 0.000201176
6 *5:6 0.00159798

*RES
1 *5:2 *5:3 0.366199
2 *5:4 *5:5 0.366199
3 *5:7 *5:6 4.47403
4 *5:7 *5:2 2.1525
5 *5:6 *5:4 2.1525
6 *5:2 *79:Q 2.1525
7 *5:4 *53:A 4.305
*END

*D_NET *41 0.00801908

*CONN
*I *90:B I *C 57.96 36.12 *L 0.00139 *D NOR2XL
*I *87:B I *C 40.04 26.04 *L 0.00139 *D NOR2XL
*I *78:B I *C 37.8 26.04 *L 0.00139 *D NOR2XL
*I *76:B I *C 54.6 15.96 *L 0.00139 *D NOR2XL
*I *73:Q O *C 27.3 29.82 *L 0 *D NAND2XL

*CAP
1 *87:B 8.92725e-05
2 *78:B 0.000288152
3 *76:B 0.0020885
4 *73:Q 0.000191056
5 *41:5 0.000712039
6 *41:6 0.000894315
7 *41:7 0.0002716
8 *41:8 0.00136391
9 *41:9 0.00170358
10 *41:10 0.000416654

*RES
1 *41:6 *41:9 3.97505
2 *78:B *41:6 2.5792
3 *41:5 *41:10 3.35619
4 *90:B *41:5 3.78289
5 *73:Q *41:11 0.572273
6 *41:6 *41:12 0.213349
7 *41:9 *41:10 5.71593
8 *76:B *41:10 9.80757
9 *41:8 *41:9 4.08553
10 *41:8 *41:7 2.1525
11 *41:12 *87:B 2.1525
12 *41:7 *41:11 4.305
*END

*D_NET *27 0.00343814

*CONN
*P *27 O *C 43.4 0 *L 0
*I *64:Q O *C 48.69 16.36 *L 0 *D CLKBUFX3

*CAP
1 *27 0.000257888
2 *27:2 0.00192958
3 *27:3 0.000748205
4 *27:4 0.00050247

*RES
1 *64:Q *27:2 6.43228
2 *27:3 *27:4 1.0381
3 *27:2 *27:3 6.12009
4 *27 *27:4 2.1525
*END

*D_NET *6 0.0068614

*CONN
*I *82:Q O *C 27.34 15.88 *L 0 *D NOR2XL
*I *54:A I *C 60.2 35 *L 0.00219 *D CLKBUFX3

*CAP
1 *82:Q 8.95027e-05
2 *6:2 0.000898228
3 *6:3 0.00028923
4 *6:4 0.00198613
5 *6:5 0.00339597
6 *6:6 0.000202344

*RES
1 *6:5 *6:6 0.376146
2 *54:A *6:2 6.34299
3 *6:3 *6:6 2.783
4 *6:3 *6:4 5.09497
5 *6:2 *6:5 13.3615
6 *6:4 *82:Q 2.1525
*END

*D_NET *42 0.0111752

*CONN
*I *88:B I *C 63.56 15.96 *L 0.00139 *D NOR2XL
*I *86:B I *C 31.08 26.04 *L 0.00139 *D NOR2XL
*I *85:B I *C 53.48 26.04 *L 0.00139 *D NOR2XL
*I *75:B I *C 18.76 15.96 *L 0.00139 *D NOR2XL
*I *74:Q O *C 27.58 29.82 *L 0 *D NAND2XL

*CAP
1 *88:B 0.000342846
2 *75:B 0.000313019
3 *74:Q 0.000376773
4 *42:5 0.000203279
5 *42:6 0.000102626
6 *42:7 0.00135873
7 *42:8 0.00129886
8 *42:9 0.00109996
9 *42:10 0.000708116
10 *42:11 0.000585211
11 *42:12 0.000114442
12 *42:13 0.000306737
13 *42:14 0.00039358
14 *42:15 0.000162378
15 *42:16 0.00230341
16 *42:17 0.000141258
17 *42:18 0.00065396
18 *42:19 0.000709992

*RES
1 *42:20 *42:5 0.592478
2 *42:10 *42:21 0.253155
3 *42:15 *42:16 7.95428
4 *42:16 *42:18 2.87229
5 *74:Q *42:8 1.46604
6 *42:22 *42:8 4.95019
7 *88:B *42:15 2.9677
8 *42:21 *42:11 2.6409
9 *75:B *42:14 1.44584
10 *42:5 *42:6 0.253155
11 *42:17 *42:18 1.83419
12 *42:11 *42:12 0.253155
13 *42:6 *42:7 5.84396
14 *42:8 *42:19 3.98669
15 *42:9 *42:10 1.74713
16 *42:13 *42:14 5.1393
17 *42:7 *42:22 0.253155
18 *42:12 *42:13 0.582376
19 *42:9 *42:19 5.02479
20 *42:18 *85:B 2.1525
21 *42:19 *86:B 2.1525
22 *42:17 *42:20 2.1525
*END

*D_NET *28 0.00410376

*CONN
*P *28 O *C 44.52 0 *L 0
*I *56:Q O *C 46.45 26.44 *L 0 *D CLKBUFX3

*CAP
1 *28 0.000274796
2 *28:2 0.00278534
3 *28:3 0.000240825
4 *28:4 0.000802796

*RES
1 *56:Q *28:2 9.28547
2 *28:3 *28:4 1.83419
3 *28:2 *28:3 4.9164
4 *28 *28:4 2.1525
*END

*D_NET *7 0.00344599

*CONN
*I *85:Q O *C 53.1 25.96 *L 0 *D NOR2XL
*I *55:A I *C 39.48 14.84 *L 0.00219 *D CLKBUFX3

*CAP
1 *55:A 0.00120986
2 *7:2 0.000235311
3 *7:3 0.000177629
4 *7:4 0.00182319

*RES
1 *55:A *7:4 7.36199
2 *7:2 *7:4 8.97328
3 *7:2 *7:3 0.366199
4 *7:2 *85:Q 2.1525
*END

*D_NET *43 0.0058001

*CONN
*I *91:Q O *C 56.06 36.34 *L 0 *D INVXL
*I *72:B I *C 24.36 35.56 *L 0.00146 *D NAND2XL
*I *70:B I *C 15.4 35.56 *L 0.00146 *D NAND2XL

*CAP
1 *91:Q 0.000399885
2 *72:B 0.000453831
3 *70:B 0.000224669
4 *43:3 0.000443286
5 *43:4 0.000128253
6 *43:5 0.000838164
7 *43:6 0.00167264
8 *43:7 0.00124681
9 *43:8 0.000109174
10 *43:9 0.000283388

*RES
1 *43:6 *43:10 0.376146
2 *91:Q *43:4 2.97725
3 *43:8 *43:9 0.815197
4 *72:B *43:9 5.324
5 *43:3 *43:5 3.1906
6 *43:10 *43:7 4.70648
7 *43:4 *43:6 8.26647
8 *43:7 *43:8 0.376146
9 *70:B *43:3 0.863461
10 *43:5 *43:9 4.80189
*END

*D_NET *29 0.00392166

*CONN
*P *29 O *C 45.64 0 *L 0
*I *61:Q O *C 57.65 16.36 *L 0 *D CLKBUFX3

*CAP
1 *29 0.000273164
2 *29:2 0.0015347
3 *29:3 0.00147954
4 *29:4 0.000634252

*RES
1 *61:Q *29:2 6.02468
2 *29:3 *29:4 1.44569
3 *29:2 *29:3 8.56568
4 *29 *29:4 2.1525
*END

*D_NET *8 0.00282344

*CONN
*I *90:Q O *C 57.58 36.04 *L 0 *D NOR2XL
*I *56:A I *C 45.64 24.92 *L 0.00219 *D CLKBUFX3

*CAP
1 *56:A 0.00111779
2 *8:2 0.000247177
3 *8:3 0.000169889
4 *8:4 0.00128858

*RES
1 *56:A *8:4 7.36199
2 *8:2 *8:3 0.366199
3 *8:4 *8:5 6.20938
4 *8:5 *8:2 2.1525
5 *8:2 *90:Q 2.1525
*END

*D_NET *44 0.00646825

*CONN
*I *87:A I *C 40.86 25.77 *L 0.00118 *D NOR2XL
*I *86:A I *C 31.9 25.77 *L 0.00118 *D NOR2XL
*I *83:A I *C 21.26 35.85 *L 0.00118 *D NOR2XL
*I *77:A I *C 43.1 25.77 *L 0.00118 *D NOR2XL
*I *69:Q O *C 25.62 25.06 *L 0 *D NAND2XL

*CAP
1 *87:A 0.000277716
2 *86:A 9.03329e-05
3 *83:A 7.89249e-05
4 *77:A 0.00031928
5 *69:Q 0.000446564
6 *44:5 0.000154863
7 *44:6 0.000449941
8 *44:7 0.000885335
9 *44:8 0.000491506
10 *44:9 0.000144152
11 *44:10 0.00151246
12 *44:11 8.65773e-05
13 *44:12 0.00109648
14 *44:13 0.000434115

*RES
1 *44:7 *44:11 3.96759
2 *44:8 *44:12 2.7639
3 *69:Q *44:6 2.9868
4 *44:5 *44:13 2.9486
5 *77:A *44:5 2.7639
6 *44:7 *44:9 0.426699
7 *44:10 *44:12 2.03799
8 *87:A *44:13 4.9164
9 *44:6 *44:10 2.7639
10 *44:10 *44:11 6.97349
11 *44:12 *44:13 3.07609
12 *44:8 *86:A 2.1525
13 *44:9 *83:A 2.1525
*END

*D_NET *30 0.00407758

*CONN
*P *30 O *C 46.76 0 *L 0
*I *53:Q O *C 33.01 16.36 *L 0 *D CLKBUFX3

*CAP
1 *30 0.000318662
2 *53:Q 8.30559e-05
3 *30:2 0.00258698
4 *30:3 0.000158712
5 *30:4 8.23428e-05
6 *30:5 0.00084783

*RES
1 *30:2 *30:3 2.46469
2 *30:2 *30:4 6.82078
3 *30:4 *30:5 5.00569
4 *30:5 *30 2.1525
5 *30:3 *53:Q 2.1525
*END

*D_NET *9 0.00480942

*CONN
*I *70:A I *C 14.28 35 *L 0.00137 *D NAND2XL
*I *69:A I *C 24.36 24.92 *L 0.00137 *D NAND2XL
*I *66:Q O *C 36.26 23.94 *L 0 *D CLKINVX1

*CAP
1 *9:3 0.000346617
2 *9:4 0.000156027
3 *9:5 0.00164576
4 *9:6 0.00210598
5 *9:7 0.000453532
6 *9:8 0.000101507

*RES
1 *9:5 *9:8 6.43228
2 *9:5 *9:7 0.834297
3 *9:4 *9:7 1.22279
4 *9:4 *9:6 7.95428
5 *70:A *9:6 4.59809
6 *9:8 *9:3 2.1525
7 *9:3 *66:Q 2.1525
8 *9:7 *69:A 2.1525
*END

*D_NET *45 0.00927382

*CONN
*I *88:A I *C 62.74 15.69 *L 0.00118 *D NOR2XL
*I *84:A I *C 29.1 35.85 *L 0.00118 *D NOR2XL
*I *81:A I *C 34.14 25.77 *L 0.00118 *D NOR2XL
*I *78:A I *C 38.62 25.77 *L 0.00118 *D NOR2XL
*I *70:Q O *C 15.54 35.14 *L 0 *D NAND2XL

*CAP
1 *88:A 7.11143e-05
2 *84:A 0.000215976
3 *70:Q 0.000100458
4 *45:5 0.000163148
5 *45:6 0.00154649
6 *45:7 0.000263304
7 *45:8 0.00125086
8 *45:9 0.00145958
9 *45:10 8.64325e-05
10 *45:11 0.000867723
11 *45:12 0.000500101
12 *45:13 0.00274863

*RES
1 *45:6 *45:12 7.04368
2 *84:A *45:12 4.7126
3 *45:5 *45:13 10.4892
4 *45:11 *45:13 1.63039
5 *45:10 *45:12 0.999895
6 *78:A *45:13 4.7126
7 *45:5 *45:8 3.27989
8 *45:6 *45:7 0.630498
9 *45:9 *45:11 0.815197
10 *45:9 *45:10 8.80768
11 *81:A *45:11 4.7126
12 *45:7 *70:Q 2.1525
13 *45:8 *88:A 2.1525
*END

*D_NET *31 0.00547267

*CONN
*P *31 O *C 47.88 0 *L 0
*I *62:Q O *C 65.49 26.44 *L 0 *D CLKBUFX3

*CAP
1 *31 0.000302049
2 *31:2 0.00117788
3 *31:3 0.00210036
4 *31:4 0.00189238

*RES
1 *62:Q *31:2 5.20949
2 *31:3 *31:4 8.08177
3 *31:2 *31:3 8.45117
4 *31:4 *31 2.1525
*END

*D_NET *10 0.00328978

*CONN
*I *77:Q O *C 42.66 25.96 *L 0 *D NOR2XL
*I *57:A I *C 32.2 35 *L 0.00219 *D CLKBUFX3

*CAP
1 *10:2 0.000394163
2 *10:3 0.00280656
3 *10:4 8.90587e-05

*RES
1 *57:A *10:3 7.54669
2 *10:3 *10:4 6.04378
3 *10:4 *10:2 2.1525
4 *10:2 *77:Q 2.1525
*END

*D_NET *46 0.0100418

*CONN
*I *89:A I *C 15.7 25.77 *L 0.00118 *D NOR2XL
*I *80:A I *C 61.62 25.77 *L 0.00118 *D NOR2XL
*I *76:A I *C 53.78 15.69 *L 0.00118 *D NOR2XL
*I *75:A I *C 17.94 15.69 *L 0.00118 *D NOR2XL
*I *71:Q O *C 36.82 14.98 *L 0 *D NAND2XL

*CAP
1 *80:A 8.16138e-05
2 *76:A 7.89506e-05
3 *75:A 6.18882e-05
4 *46:5 0.00157906
5 *46:6 0.000409287
6 *46:7 0.00219421
7 *46:8 0.000119473
8 *46:9 0.00325391
9 *46:10 0.000348428
10 *46:11 0.000141005
11 *46:12 0.000122725
12 *46:13 0.000102787
13 *46:14 0.000116192
14 *46:15 0.000234192
15 *46:16 0.00119805

*RES
1 *46:8 *46:9 2.87229
2 *46:5 *46:11 4.29888
3 *46:12 *46:16 2.783
4 *46:7 *46:16 8.26647
5 *46:9 *46:14 9.08167
6 *46:5 *46:16 4.98659
7 *46:8 *46:15 2.7639
8 *46:6 *46:7 0.671897
9 *46:9 *46:13 0.2229
10 *46:14 *46:6 2.1525
11 *46:15 *46:10 2.1525
12 *46:6 *71:Q 2.1525
13 *46:10 *89:A 2.1525
14 *46:11 *80:A 2.1525
15 *46:12 *76:A 2.1525
16 *46:13 *75:A 2.1525
*END

*D_NET *32 0.00565595

*CONN
*P *32 O *C 49 0 *L 0
*I *54:Q O *C 61.01 36.52 *L 0 *D CLKBUFX3

*CAP
1 *32 0.00028342
2 *32:2 0.00131523
3 *32:3 0.00132011
4 *32:4 0.00273719

*RES
1 *54:Q *32:2 5.41329
2 *32:3 *32:4 11.5464
3 *32:2 *32:3 6.41318
4 *32:4 *32 2.1525
*END

*D_NET *11 0.00256026

*CONN
*I *83:Q O *C 20.82 36.04 *L 0 *D NOR2XL
*I *58:A I *C 36.12 35 *L 0.00219 *D CLKBUFX3

*CAP
1 *11:2 0.000422624
2 *11:3 0.000171606
3 *11:4 0.000197413
4 *11:5 0.00176862

*RES
1 *58:A *11:2 4.9164
2 *11:3 *11:4 0.366199
3 *11:2 *11:5 7.44172
4 *11:5 *11:3 2.1525
5 *11:3 *83:Q 2.1525
*END

*D_NET *47 0.0117891

*CONN
*I *90:A I *C 57.14 35.85 *L 0.00118 *D NOR2XL
*I *85:A I *C 52.66 25.77 *L 0.00118 *D NOR2XL
*I *82:A I *C 26.9 15.69 *L 0.00118 *D NOR2XL
*I *79:A I *C 44.82 15.69 *L 0.00118 *D NOR2XL
*I *72:Q O *C 24.5 35.14 *L 0 *D NAND2XL

*CAP
1 *85:A 0.000137348
2 *79:A 8.57548e-05
3 *72:Q 0.000213438
4 *47:5 0.00015835
5 *47:6 0.000391062
6 *47:7 0.000712763
7 *47:8 0.000938174
8 *47:9 0.000159612
9 *47:10 0.00307921
10 *47:11 0.000265706
11 *47:12 0.000386524
12 *47:13 0.00164615
13 *47:14 0.000481325
14 *47:15 0.00114763
15 *47:16 0.000220823
16 *47:17 0.0002446
17 *47:18 8.81012e-05
18 *47:19 0.000170396
19 *47:20 0.000986943
20 *47:21 0.000188781
21 *47:22 8.6441e-05

*RES
1 *47:8 *47:15 2.64939
2 *47:7 *47:15 3.24169
3 *47:18 *47:19 0.366199
4 *47:14 *47:20 3.1906
5 *47:9 *47:10 3.07609
6 *47:9 *47:13 5.91629
7 *47:8 *47:20 6.93529
8 *47:5 *47:13 4.82099
9 *47:6 *47:7 8.47639
10 *72:Q *47:5 0.863461
11 *47:10 *47:11 0.630498
12 *47:21 *47:22 0.417148
13 *47:16 *47:17 0.509498
14 *90:A *47:6 2.5601
15 *47:10 *47:20 8.47027
16 *85:A *47:15 4.87727
17 *47:21 *47:18 2.1525
18 *47:22 *47:16 2.1525
19 *47:18 *47:12 2.1525
20 *47:16 *47:11 2.1525
21 *47:12 *82:A 2.1525
22 *47:14 *79:A 2.1525
*END

*D_NET *33 0.00530726

*CONN
*P *33 O *C 50.12 0 *L 0
*I *63:Q O *C 24.05 16.36 *L 0 *D CLKBUFX3

*CAP
1 *33 0.000293094
2 *63:Q 8.25055e-05
3 *33:2 0.000130678
4 *33:3 0.00123397
5 *33:4 0.00341491
6 *33:5 0.000152107

*RES
1 *33:2 *33:3 3.26079
2 *33:4 *33:5 2.05709
3 *33:2 *33:4 13.4569
4 *33 *33:3 2.1525
5 *33:5 *63:Q 2.1525
*END

*D_NET *12 0.00614096

*CONN
*I *86:Q O *C 31.46 25.96 *L 0 *D NOR2XL
*I *59:A I *C 65.8 14.84 *L 0.00219 *D CLKBUFX3

*CAP
1 *86:Q 0.000155012
2 *12:2 0.00012613
3 *12:3 0.000488951
4 *12:4 0.00537087

*RES
1 *86:Q *12:2 0.572273
2 *59:A *12:3 5.1202
3 *12:3 *12:4 16.31
4 *12:2 *12:4 6.24758
*END

*D_NET *48 0.00196838

*CONN
*I *92:Q O *C 26.26 36.34 *L 0 *D INVXL
*I *73:A I *C 26.04 29.96 *L 0.00137 *D NAND2XL
*I *67:B I *C 24.36 29.96 *L 0.00222 *D OR2X3

*CAP
1 *92:Q 0.000134074
2 *48:3 0.000117728
3 *48:4 0.000259835
4 *48:5 0.000196688
5 *48:6 0.000178635
6 *48:7 0.0003836
7 *48:8 1.33416e-06
8 *48:9 0.000696481

*RES
1 *48:7 *48:10 2.55055
2 *48:7 *48:9 0.115089
3 *48:4 *48:5 0.458548
4 *48:3 *48:6 2.55392
5 *48:8 *48:9 1.39514
6 *92:Q *48:3 0.572273
7 *48:6 *48:8 0.124639
8 *48:10 *48:4 2.1525
9 *48:4 *73:A 2.1525
10 *48:9 *67:B 4.305
*END

*D_NET *19 0.00603264

*CONN
*P *19 O *C 34.44 0 *L 0
*I *59:Q O *C 66.61 16.36 *L 0 *D CLKBUFX3

*CAP
1 *19 0.000274453
2 *19:2 0.000646097
3 *19:3 0.00357442
4 *19:4 0.00153767

*RES
1 *59:Q *19:2 3.57909
2 *19:3 *19:4 3.89128
3 *19:2 *19:3 15.9024
4 *19 *19:4 2.1525
*END

*D_NET *35 0.00663201

*CONN
*P *35 I *C 41.16 49.84 *L 0
*I *74:A I *C 28.84 29.96 *L 0.00137 *D NAND2XL
*I *73:B I *C 27.16 29.4 *L 0.00146 *D NAND2XL
*I *68:B I *C 39.48 35 *L 0.00222 *D OR2X3
*I *67:A I *C 23.8 29.96 *L 0.00195 *D OR2X3

*CAP
1 *35 0.000235406
2 *74:A 0.00123889
3 *35:5 0.000805359
4 *35:6 0.000200931
5 *35:7 0.000302805
6 *35:8 0.000514556
7 *35:9 0.000426202
8 *35:10 0.00202957
9 *35:11 0.000303139
10 *35:12 8.53079e-05
11 *35:13 0.000489844

*RES
1 *35:11 *35:13 1.2419
2 *35:5 *35:10 3.98669
3 *35:14 *35:6 0.417148
4 *35:11 *35:12 0.630498
5 *35:15 *35:8 0.305699
6 *74:A *35:5 5.53257
7 *35:6 *35:10 5.0888
8 *35:12 *35:7 2.1525
9 *35:13 *35:9 2.1525
10 *35:11 *35:15 2.1525
11 *35 *35:14 2.1525
12 *35:8 *73:B 2.1525
13 *35:9 *67:A 2.1525
14 *35:10 *68:B 2.1525
15 *35:7 *74:A 2.1525
*END

*D_NET *14 0.00392751

*CONN
*I *78:Q O *C 38.18 25.96 *L 0 *D NOR2XL
*I *61:A I *C 56.84 14.84 *L 0.00219 *D CLKBUFX3

*CAP
1 *78:Q 0.000197785
2 *61:A 0.000224733
3 *14:2 0.000159241
4 *14:3 0.00334575

*RES
1 *61:A *14:2 4.7126
2 *78:Q *14:3 4.82099
3 *14:2 *14:3 11.0113
*END

