*SPEF "IEEE 1481-1998"
*DESIGN "cur_dec"
*DATE "Tue Aug 29 16:04:11 2017"
*VENDOR "Cadence Design Systems, Inc."
*PROGRAM "Innovus"
*VERSION "15.28-s017_1"
*DESIGN_FLOW "PIN_CAP NONE" "NAME_SCOPE LOCAL"
*DIVIDER /
*DELIMITER :
*BUS_DELIMITER []
*T_UNIT 1 NS
*C_UNIT 1 PF
*R_UNIT 1 OHM
*L_UNIT 1 HENRY

// MMMC spef file for corner 'ams_rc_corner_typ'

*NAME_MAP

*1 CTS_80
*2 CTS_79
*3 CTS_78
*4 CTS_77
*5 CTS_76
*6 CTS_75
*7 CTS_74
*8 CTS_73
*9 sll_18_12/CTS_71
*10 CTS_72
*11 CTS_71
*12 CTS_70
*13 CTS_69
*14 CTS_68
*15 CTS_67
*16 CTS_66
*17 CTS_65
*18 out[15]
*19 out[14]
*20 out[13]
*21 out[12]
*22 out[11]
*23 out[10]
*24 out[9]
*25 out[8]
*26 out[7]
*27 out[6]
*28 out[5]
*29 out[4]
*30 out[3]
*31 out[2]
*32 out[1]
*33 out[0]
*34 in[3]
*35 in[2]
*36 in[1]
*37 in[0]
*38 logic_1_1_net
*39 sll_18_12/n_15
*40 sll_18_12/n_13
*41 sll_18_12/n_12
*42 sll_18_12/n_11
*43 sll_18_12/n_6
*44 sll_18_12/n_5
*45 sll_18_12/n_4
*46 sll_18_12/n_3
*47 sll_18_12/n_2
*48 sll_18_12/n_0
*49 CTS_ccl_BUF_in_0__G0_L3_8
*50 CTS_ccl_BUF_in_0__G0_L3_7
*51 CTS_ccl_BUF_in_0__G0_L3_6
*52 CTS_ccl_BUF_in_0__G0_L3_5
*53 CTS_ccl_BUF_in_0__G0_L3_4
*54 CTS_ccl_BUF_in_0__G0_L3_3
*55 CTS_ccl_BUF_in_0__G0_L3_2
*56 CTS_ccl_BUF_in_0__G0_L3_1
*57 CTS_ccl_BUF_in_0__G0_L4_8
*58 CTS_ccl_BUF_in_0__G0_L4_7
*59 CTS_ccl_BUF_in_0__G0_L4_6
*60 CTS_ccl_BUF_in_0__G0_L4_5
*61 CTS_ccl_BUF_in_0__G0_L4_4
*62 CTS_ccl_BUF_in_0__G0_L4_3
*63 CTS_ccl_BUF_in_0__G0_L4_2
*64 CTS_ccl_BUF_in_0__G0_L4_1
*65 tie_1_cell
*66 sll_18_12/CTS_cex_INV_in_0__G0_L1_1
*67 sll_18_12/g68
*68 sll_18_12/g70
*69 sll_18_12/g178
*70 sll_18_12/g179
*71 sll_18_12/g180
*72 sll_18_12/g181
*73 sll_18_12/g67
*74 sll_18_12/g69
*75 sll_18_12/g162
*76 sll_18_12/g163
*77 sll_18_12/g164
*78 sll_18_12/g165
*79 sll_18_12/g166
*80 sll_18_12/g167
*81 sll_18_12/g168
*82 sll_18_12/g169
*83 sll_18_12/g170
*84 sll_18_12/g171
*85 sll_18_12/g172
*86 sll_18_12/g173
*87 sll_18_12/g174
*88 sll_18_12/g175
*89 sll_18_12/g176
*90 sll_18_12/g177
*91 sll_18_12/g64
*92 sll_18_12/g71


*PORTS

*18 O *C 33.32 0
*19 O *C 34.44 0
*20 O *C 35.56 0
*21 O *C 36.68 0
*22 O *C 37.8 0
*23 O *C 38.92 0
*24 O *C 40.04 0
*25 O *C 41.16 0
*26 O *C 42.28 0
*27 O *C 43.4 0
*28 O *C 44.52 0
*29 O *C 45.64 0
*30 O *C 46.76 0
*31 O *C 47.88 0
*32 O *C 49 0
*33 O *C 50.12 0
*34 I *C 42.28 49.84
*35 I *C 41.16 49.84
*36 I *C 40.04 49.84
*37 I *C 38.92 49.84


*D_NET *19 0.00597844

*CONN
*P *19 O *C 34.44 0 *L 0
*I *59:Q O *C 66.61 16.36 *L 0 *D CLKBUFX3

*CAP
1 *19 0.00028214
2 *19:2 0.000647459
3 *19:3 0.0036076
4 *19:4 0.00144124

*RES
1 *59:Q *19:2 2.68449
2 *19:3 *19:4 3.78236
3 *19:2 *19:3 13.9644
4 *19 *19:4 1.287
*END

*D_NET *35 0.006604

*CONN
*P *35 I *C 41.16 49.84 *L 0
*I *74:A I *C 28.84 29.96 *L 0.00143 *D NAND2XL
*I *73:B I *C 27.16 29.4 *L 0.00151 *D NAND2XL
*I *68:B I *C 39.48 35 *L 0.00231 *D OR2X3
*I *67:A I *C 23.8 29.96 *L 0.00202 *D OR2X3

*CAP
1 *35 0.00023733
2 *74:A 0.00124977
3 *35:5 0.000805889
4 *35:6 0.000199092
5 *35:7 0.000314065
6 *35:8 0.000526321
7 *35:9 0.000456345
8 *35:10 0.00192305
9 *35:11 0.000303475
10 *35:12 8.70046e-05
11 *35:13 0.000501657

*RES
1 *35:11 *35:13 1.18703
2 *35:5 *35:10 3.08377
3 *35:14 *35:6 0.393872
4 *35:11 *35:12 0.588103
5 *35:15 *35:8 0.299462
6 *74:A *35:5 5.84387
7 *35:6 *35:10 4.98499
8 *35:12 *35:7 1.287
9 *35:13 *35:9 1.287
10 *35:11 *35:15 1.287
11 *35 *35:14 1.287
12 *35:8 *73:B 1.287
13 *35:9 *67:A 1.287
14 *35:10 *68:B 1.287
15 *35:7 *74:A 1.287
*END

*D_NET *14 0.00396252

*CONN
*I *78:Q O *C 38.18 25.96 *L 0 *D NOR2XL
*I *61:A I *C 56.84 14.84 *L 0.00225 *D CLKBUFX3

*CAP
1 *78:Q 0.000196933
2 *61:A 0.000222315
3 *14:2 0.000163331
4 *14:3 0.00337994

*RES
1 *61:A *14:2 2.97328
2 *78:Q *14:3 3.87152
3 *14:2 *14:3 9.17299
*END

*D_NET *20 0.00573738

*CONN
*P *20 O *C 35.56 0 *L 0
*I *50:Q O *C 56.53 26.44 *L 0 *D CLKBUFX3

*CAP
1 *20 0.00036619
2 *20:2 0.000939858
3 *20:3 0.00256974
4 *20:4 0.00186159

*RES
1 *50:Q *20:2 3.48305
2 *20:3 *20:4 7.87516
3 *20:2 *20:3 8.88419
4 *20:4 *20 1.287
*END

*D_NET *36 0.00609651

*CONN
*P *36 I *C 40.04 49.84 *L 0
*I *92:A I *C 26.6 36.12 *L 0.00136 *D INVXL
*I *74:B I *C 27.72 29.4 *L 0.00151 *D NAND2XL
*I *68:A I *C 38.92 35 *L 0.00202 *D OR2X3

*CAP
1 *36 0.000200141
2 *92:A 0.000156004
3 *74:B 0.000281217
4 *68:A 0.000426092
5 *36:4 0.000251769
6 *36:5 0.000332218
7 *36:6 0.000302936
8 *36:7 0.000235228
9 *36:8 6.87842e-05
10 *36:9 0.000894
11 *36:10 0.000478837
12 *36:11 2.341e-05
13 *36:12 0.00126503
14 *36:13 0.000529262
15 *36:14 0.000413349
16 *36:15 5.84825e-05
17 *36:16 0.000179753

*RES
1 *36:5 *36:12 6.36719
2 *36:13 *36:14 1.1918
3 *36:7 *36:8 0.188821
4 *36:4 *36:7 0.592874
5 *36:15 *36:16 0.398004
6 *36:10 *36:11 0.14604
7 *36:10 *36:17 0.797287
8 *36:12 *36:14 0.598924
9 *36:18 *36:6 0.188821
10 *36 *36:15 0.188821
11 *36:19 *36:9 0.188821
12 *36:4 *36:16 1.68628
13 *36:5 *36:19 0.592874
14 *36:5 *36:6 0.592874
15 *74:B *36:11 2.9424
16 *36:8 *36:9 2.39442
17 *36:17 *36:13 0.188821
18 *68:A *36:18 1.68564
19 *92:A *36:14 1.91055
*END

*D_NET *15 0.0042091

*CONN
*I *81:Q O *C 33.7 25.96 *L 0 *D NOR2XL
*I *62:A I *C 64.68 24.92 *L 0.00225 *D CLKBUFX3

*CAP
1 *81:Q 0.000183691
2 *15:2 0.000551422
3 *15:3 0.00347399

*RES
1 *62:A *15:2 3.57221
2 *81:Q *15:3 1.67546
3 *15:2 *15:3 13.3655
*END

*D_NET *21 0.00409306

*CONN
*P *21 O *C 36.68 0 *L 0
*I *60:Q O *C 15.09 16.36 *L 0 *D CLKBUFX3

*CAP
1 *21 0.000281057
2 *60:Q 8.64243e-05
3 *21:2 0.000149227
4 *21:3 0.000479028
5 *21:4 0.00296328
6 *21:5 0.000134047

*RES
1 *21:2 *21:3 0.987386
2 *21:4 *21:5 4.18165
3 *21:2 *21:4 9.77191
4 *21 *21:3 1.287
5 *21:5 *60:Q 1.287
*END

*D_NET *37 0.00739468

*CONN
*P *37 I *C 38.92 49.84 *L 0
*I *72:A I *C 23.24 35 *L 0.00143 *D NAND2XL
*I *71:A I *C 35.56 14.84 *L 0.00143 *D NAND2XL
*I *66:A I *C 36.68 24.92 *L 0.00202 *D CLKINVX1

*CAP
1 *37 0.000188908
2 *72:A 0.00167988
3 *71:A 0.00141375
4 *37:4 0.000179357
5 *37:5 0.00019104
6 *37:6 0.000344535
7 *37:7 0.0010545
8 *37:8 0.000238568
9 *37:9 0.00210414

*RES
1 *37:7 *37:8 6.07839
2 *71:A *37:6 4.88054
3 *37:6 *37:9 1.68628
4 *37:4 *37:5 0.499103
5 *37 *37:8 0.798565
6 *37:8 *37:9 11.1586
7 *72:A *37:7 6.27804
8 *37:9 *37:4 1.287
9 *37:4 *66:A 2.574
*END

*D_NET *16 0.00361328

*CONN
*I *84:Q O *C 28.66 36.04 *L 0 *D NOR2XL
*I *63:A I *C 23.24 14.84 *L 0.00225 *D CLKBUFX3

*CAP
1 *84:Q 0.000195889
2 *63:A 0.00219964
3 *16:2 0.000261979
4 *16:3 0.000955773

*RES
1 *63:A *16:3 8.76289
2 *84:Q *16:2 1.67546
3 *16:2 *16:3 4.78087
*END

*D_NET *22 0.0049718

*CONN
*P *22 O *C 37.8 0 *L 0
*I *52:Q O *C 21.81 26.44 *L 0 *D CLKBUFX3

*CAP
1 *22 0.000291143
2 *22:2 0.00233293
3 *22:3 9.6346e-05
4 *22:4 0.00225138

*RES
1 *52:Q *22:2 3.08377
2 *22:3 *22:4 8.26363
3 *22:2 *22:3 6.68814
4 *22:4 *22 1.287
*END

*D_NET *1 0.00790562

*CONN
*I *75:Q O *C 18.38 15.88 *L 0 *D NOR2XL
*I *49:A I *C 68.04 35 *L 0.00225 *D CLKBUFX3

*CAP
1 *75:Q 0.00254713
2 *1:2 0.000145275
3 *1:3 3.04605e-05
4 *1:4 0.000127774
5 *1:5 0.00505498

*RES
1 *75:Q *1:5 8.66291
2 *1:2 *1:3 0.188821
3 *1:3 *1:4 0.155141
4 *1:2 *1:5 20.3529
5 *1:3 *49:A 2.574
*END

*D_NET *17 0.0025827

*CONN
*I *88:Q O *C 63.18 15.88 *L 0 *D NOR2XL
*I *64:A I *C 47.88 14.84 *L 0.00225 *D CLKBUFX3

*CAP
1 *88:Q 0.000117552
2 *17:2 0.000219811
3 *17:3 0.000143358
4 *17:4 0.000154371
5 *17:5 0.000182864
6 *17:6 0.00176474

*RES
1 *17:2 *17:3 0.343962
2 *17:4 *17:5 0.343962
3 *17:7 *17:6 5.2015
4 *17:7 *17:2 1.287
5 *17:6 *17:4 1.287
6 *17:2 *88:Q 1.287
7 *17:4 *64:A 2.574
*END

*D_NET *23 0.00532288

*CONN
*P *23 O *C 38.92 0 *L 0
*I *57:Q O *C 33.01 36.52 *L 0 *D CLKBUFX3

*CAP
1 *23 0.000304614
2 *57:Q 8.76434e-05
3 *23:2 0.00167671
4 *23:3 0.000151092
5 *23:4 9.98062e-05
6 *23:5 0.00300301

*RES
1 *23:2 *23:3 2.58452
2 *23:2 *23:4 2.89495
3 *23:4 *23:5 11.0586
4 *23:5 *23 1.287
5 *23:3 *57:Q 1.287
*END

*D_NET *2 0.00179176

*CONN
*I *76:Q O *C 54.22 15.88 *L 0 *D NOR2XL
*I *50:A I *C 55.72 24.92 *L 0.00225 *D CLKBUFX3

*CAP
1 *76:Q 0.000194027
2 *2:2 0.00159773

*RES
1 *76:Q *2:2 0.931124
2 *50:A *2:2 7.65418
*END

*D_NET *24 0.00691763

*CONN
*P *24 O *C 40.04 0 *L 0
*I *51:Q O *C 64.93 36.52 *L 0 *D CLKBUFX3

*CAP
1 *24 0.000334583
2 *24:2 0.00105969
3 *24:3 0.00287274
4 *24:4 0.00265062

*RES
1 *51:Q *24:2 3.88234
2 *24:3 *24:4 11.0694
3 *24:2 *24:3 10.2817
4 *24:4 *24 1.287
*END

*D_NET *3 0.00215591

*CONN
*I *80:Q O *C 62.06 25.96 *L 0 *D NOR2XL
*I *51:A I *C 64.12 35 *L 0.00225 *D CLKBUFX3

*CAP
1 *80:Q 0.000357933
2 *3:2 0.00136772
3 *3:3 0.000430254

*RES
1 *51:A *3:2 5.76826
2 *80:Q *3:3 1.67546
3 *3:2 *3:3 3.38339
*END

*D_NET *39 0.0125954

*CONN
*I *84:B I *C 28.28 36.12 *L 0.00141 *D NOR2XL
*I *83:B I *C 20.44 36.12 *L 0.00141 *D NOR2XL
*I *82:B I *C 27.72 15.96 *L 0.00141 *D NOR2XL
*I *80:B I *C 62.44 26.04 *L 0.00141 *D NOR2XL
*I *68:Q O *C 40.41 36.68 *L 0 *D OR2X3

*CAP
1 *84:B 0.000406637
2 *83:B 0.000334686
3 *82:B 0.000274919
4 *80:B 7.22693e-05
5 *68:Q 0.000346404
6 *39:5 0.00171193
7 *39:6 9.95286e-05
8 *39:7 0.000296525
9 *39:8 0.00229066
10 *39:9 0.00010224
11 *39:10 0.000296058
12 *39:11 0.0002676
13 *39:12 0.00089928
14 *39:13 0.000101272
15 *39:14 0.000267046
16 *39:15 0.00208173
17 *39:16 0.000452636
18 *39:17 0.000245838
19 *39:18 0.000641062
20 *39:19 0.00010224
21 *39:20 0.00034178
22 *39:21 0.000887346
23 *39:22 7.57044e-05

*RES
1 *68:Q *39:10 3.1621
2 *39:5 *39:6 6.96611
3 *39:11 *39:23 0.305558
4 *39:16 *39:17 0.598327
5 *39:8 *39:9 0.305558
6 *39:17 *39:24 0.305558
7 *84:B *39:16 3.37257
8 *80:B *39:5 0.299164
9 *39:23 *39:12 4.28919
10 *82:B *39:15 1.2387
11 *83:B *39:20 3.37257
12 *39:6 *39:7 0.615144
13 *39:24 *39:18 3.0589
14 *39:21 *39:22 0.188821
15 *39:14 *39:21 3.87629
16 *39:9 *39:10 0.615144
17 *39:12 *39:13 0.305558
18 *39:18 *39:19 0.305558
19 *39:7 *39:25 0.305558
20 *39:10 *39:11 0.598327
21 *39:15 *39:22 6.67127
22 *39:25 *39:8 11.0558
23 *39:14 *39:16 1.23029
24 *39:13 *39:14 0.615144
25 *39:19 *39:20 0.615144
*END

*D_NET *25 0.00592933

*CONN
*P *25 O *C 41.16 0 *L 0
*I *58:Q O *C 36.93 36.52 *L 0 *D CLKBUFX3

*CAP
1 *25 0.000280465
2 *25:2 0.000158715
3 *25:3 0.000465148
4 *25:4 0.005025

*RES
1 *25:2 *25:3 0.987386
2 *58:Q *25:4 12.6665
3 *25:2 *25:4 3.78267
4 *25 *25:3 1.287
*END

*D_NET *4 0.00122311

*CONN
*I *89:Q O *C 16.14 25.96 *L 0 *D NOR2XL
*I *52:A I *C 21 24.92 *L 0.00225 *D CLKBUFX3

*CAP
1 *4:2 0.000154093
2 *4:3 0.000167768
3 *4:4 0.000266782
4 *4:5 0.000102879
5 *4:6 0.000531593

*RES
1 *4:2 *4:3 0.343962
2 *4:4 *4:5 0.249552
3 *4:7 *4:6 1.80759
4 *4:7 *4:2 1.287
5 *4:6 *4:4 1.287
6 *4:4 *89:Q 1.287
7 *4:2 *52:A 2.574
*END

*D_NET *40 0.00855885

*CONN
*I *89:B I *C 16.52 26.04 *L 0.00141 *D NOR2XL
*I *81:B I *C 33.32 26.04 *L 0.00141 *D NOR2XL
*I *79:B I *C 45.64 15.96 *L 0.00141 *D NOR2XL
*I *77:B I *C 42.28 26.04 *L 0.00141 *D NOR2XL
*I *67:Q O *C 25.29 28.28 *L 0 *D OR2X3

*CAP
1 *89:B 0.000432242
2 *81:B 0.000412914
3 *79:B 0.00107312
4 *77:B 0.000353414
5 *40:5 0.000142003
6 *40:6 0.000543817
7 *40:7 0.000241625
8 *40:8 0.000771349
9 *40:9 0.000131611
10 *40:10 0.000413545
11 *40:11 0.000789301
12 *40:12 0.000449437
13 *40:13 0.000657441
14 *40:14 0.000130054
15 *40:15 0.00018563
16 *40:16 0.00027972
17 *40:17 0.000164059
18 *40:18 0.000915566
19 *40:19 0.000472005

*RES
1 *40:12 *40:18 2.27439
2 *81:B *40:10 3.37257
3 *40:5 *40:6 1.2471
4 *40:16 *40:17 0.449193
5 *89:B *40:12 1.85384
6 *40:8 *40:9 0.305558
7 *40:6 *40:7 0.598327
8 *40:18 *40:19 3.28882
9 *79:B *40:20 4.08675
10 *40:5 *40:13 2.87808
11 *40:9 *40:10 0.606736
12 *40:20 *40:13 0.388462
13 *40:14 *40:19 2.29062
14 *40:7 *40:21 0.305558
15 *40:10 *40:11 2.1446
16 *40:11 *40:15 1.67546
17 *40:14 *40:15 0.193592
18 *40:21 *40:8 3.67405
19 *77:B *40:6 3.37257
20 *40:19 *40:16 1.287
21 *40:16 *67:Q 1.287
*END

*D_NET *26 0.00243678

*CONN
*P *26 O *C 42.28 0 *L 0
*I *55:Q O *C 40.29 16.36 *L 0 *D CLKBUFX3

*CAP
1 *26 0.000262019
2 *55:Q 0.000129701
3 *26:2 0.000124547
4 *26:3 0.00192051

*RES
1 *55:Q *26:2 0.623552
2 *26:2 *26:3 6.46686
3 *26 *26:3 1.287
*END

*D_NET *5 0.00255239

*CONN
*I *79:Q O *C 45.26 15.88 *L 0 *D NOR2XL
*I *53:A I *C 32.2 14.84 *L 0.00225 *D CLKBUFX3

*CAP
1 *79:Q 0.000118663
2 *5:2 0.000255641
3 *5:3 0.000146551
4 *5:4 0.00018148
5 *5:5 0.000205323
6 *5:6 0.00164473

*RES
1 *5:2 *5:3 0.343962
2 *5:4 *5:5 0.343962
3 *5:7 *5:6 4.39752
4 *5:7 *5:2 1.287
5 *5:6 *5:4 1.287
6 *5:2 *79:Q 1.287
7 *5:4 *53:A 2.574
*END

*D_NET *41 0.00797112

*CONN
*I *90:B I *C 57.96 36.12 *L 0.00141 *D NOR2XL
*I *87:B I *C 40.04 26.04 *L 0.00141 *D NOR2XL
*I *78:B I *C 37.8 26.04 *L 0.00141 *D NOR2XL
*I *76:B I *C 54.6 15.96 *L 0.00141 *D NOR2XL
*I *73:Q O *C 27.3 29.82 *L 0 *D NAND2XL

*CAP
1 *87:B 9.49735e-05
2 *78:B 0.000271149
3 *76:B 0.00205855
4 *73:Q 0.00019851
5 *41:5 0.000712278
6 *41:6 0.000867196
7 *41:7 0.000289134
8 *41:8 0.00132916
9 *41:9 0.00171226
10 *41:10 0.000437906

*RES
1 *41:6 *41:9 3.07236
2 *78:B *41:6 1.67546
3 *41:5 *41:10 2.49567
4 *90:B *41:5 2.88413
5 *73:Q *41:11 0.623552
6 *41:6 *41:12 0.194231
7 *41:9 *41:10 5.58455
8 *76:B *41:10 7.96432
9 *41:8 *41:9 3.98742
10 *41:8 *41:7 1.287
11 *41:12 *87:B 1.287
12 *41:7 *41:11 2.574
*END

*D_NET *27 0.00329904

*CONN
*P *27 O *C 43.4 0 *L 0
*I *64:Q O *C 48.69 16.36 *L 0 *D CLKBUFX3

*CAP
1 *27 0.000261972
2 *27:2 0.00179073
3 *27:3 0.000741193
4 *27:4 0.00050514

*RES
1 *64:Q *27:2 5.47947
2 *27:3 *27:4 0.987386
3 *27:2 *27:3 4.38159
4 *27 *27:4 1.287
*END

*D_NET *6 0.0068784

*CONN
*I *82:Q O *C 27.34 15.88 *L 0 *D NOR2XL
*I *54:A I *C 60.2 35 *L 0.00225 *D CLKBUFX3

*CAP
1 *82:Q 9.70926e-05
2 *6:2 0.000873694
3 *6:3 0.000294221
4 *6:4 0.00195168
5 *6:5 0.00348802
6 *6:6 0.000173697

*RES
1 *6:5 *6:6 0.398004
2 *54:A *6:2 4.57041
3 *6:3 *6:6 1.8751
4 *6:3 *6:4 4.99104
5 *6:2 *6:5 12.2673
6 *6:4 *82:Q 1.287
*END

*D_NET *42 0.0110617

*CONN
*I *88:B I *C 63.56 15.96 *L 0.00141 *D NOR2XL
*I *86:B I *C 31.08 26.04 *L 0.00141 *D NOR2XL
*I *85:B I *C 53.48 26.04 *L 0.00141 *D NOR2XL
*I *75:B I *C 18.76 15.96 *L 0.00141 *D NOR2XL
*I *74:Q O *C 27.58 29.82 *L 0 *D NAND2XL

*CAP
1 *88:B 0.000340651
2 *75:B 0.000321877
3 *74:Q 0.000365415
4 *42:5 0.000209026
5 *42:6 9.79805e-05
6 *42:7 0.00130331
7 *42:8 0.00130455
8 *42:9 0.00109922
9 *42:10 0.000730103
10 *42:11 0.000563851
11 *42:12 0.00011166
12 *42:13 0.000324471
13 *42:14 0.000378588
14 *42:15 0.000162347
15 *42:16 0.00228497
16 *42:17 0.000136712
17 *42:18 0.000640681
18 *42:19 0.000686297

*RES
1 *42:20 *42:5 0.606736
2 *42:10 *42:21 0.305558
3 *42:15 *42:16 6.17836
4 *42:16 *42:18 2.78416
5 *74:Q *42:8 1.52945
6 *42:22 *42:8 5.22872
7 *88:B *42:15 2.08557
8 *42:21 *42:11 2.75133
9 *75:B *42:14 1.54627
10 *42:5 *42:6 0.305558
11 *42:17 *42:18 1.79677
12 *42:11 *42:12 0.305558
13 *42:6 *42:7 6.13462
14 *42:8 *42:19 3.08377
15 *42:9 *42:10 1.84543
16 *42:13 *42:14 3.36174
17 *42:7 *42:22 0.305558
18 *42:12 *42:13 0.615144
19 *42:9 *42:19 4.07116
20 *42:18 *85:B 1.287
21 *42:19 *86:B 1.287
22 *42:17 *42:20 1.287
*END

*D_NET *28 0.0039881

*CONN
*P *28 O *C 44.52 0 *L 0
*I *56:Q O *C 46.45 26.44 *L 0 *D CLKBUFX3

*CAP
1 *28 0.000282711
2 *28:2 0.00268158
3 *28:3 0.000224446
4 *28:4 0.000799367

*RES
1 *56:Q *28:2 8.27445
2 *28:3 *28:4 1.79677
3 *28:2 *28:3 3.17292
4 *28 *28:4 1.287
*END

*D_NET *7 0.00348818

*CONN
*I *85:Q O *C 53.1 25.96 *L 0 *D NOR2XL
*I *55:A I *C 39.48 14.84 *L 0.00225 *D CLKBUFX3

*CAP
1 *55:A 0.00121133
2 *7:2 0.000235096
3 *7:3 0.000178955
4 *7:4 0.0018628

*RES
1 *55:A *7:4 5.56862
2 *7:2 *7:4 7.17657
3 *7:2 *7:3 0.343962
4 *7:2 *85:Q 1.287
*END

*D_NET *43 0.00572122

*CONN
*I *91:Q O *C 56.06 36.34 *L 0 *D INVXL
*I *72:B I *C 24.36 35.56 *L 0.00151 *D NAND2XL
*I *70:B I *C 15.4 35.56 *L 0.00151 *D NAND2XL

*CAP
1 *91:Q 0.000389745
2 *72:B 0.000447103
3 *70:B 0.000221436
4 *43:3 0.000446304
5 *43:4 0.000128345
6 *43:5 0.000836584
7 *43:6 0.00162686
8 *43:7 0.00122904
9 *43:8 0.00010388
10 *43:9 0.000291926

*RES
1 *43:6 *43:10 0.398004
2 *91:Q *43:4 2.08015
3 *43:8 *43:9 0.798565
4 *72:B *43:9 3.57221
5 *43:3 *43:5 2.27439
6 *43:10 *43:7 4.58093
7 *43:4 *43:6 7.27624
8 *43:7 *43:8 0.398004
9 *70:B *43:3 0.931124
10 *43:5 *43:9 3.88234
*END

*D_NET *29 0.00375603

*CONN
*P *29 O *C 45.64 0 *L 0
*I *61:Q O *C 57.65 16.36 *L 0 *D CLKBUFX3

*CAP
1 *29 0.000279536
2 *29:2 0.00145774
3 *29:3 0.00140814
4 *29:4 0.000610611

*RES
1 *61:Q *29:2 5.08018
2 *29:3 *29:4 1.38667
3 *29:2 *29:3 6.77729
4 *29 *29:4 1.287
*END

*D_NET *8 0.00281664

*CONN
*I *90:Q O *C 57.58 36.04 *L 0 *D NOR2XL
*I *56:A I *C 45.64 24.92 *L 0.00225 *D CLKBUFX3

*CAP
1 *56:A 0.00109628
2 *8:2 0.000243829
3 *8:3 0.000170159
4 *8:4 0.00130637

*RES
1 *56:A *8:4 5.56862
2 *8:2 *8:3 0.343962
3 *8:4 *8:5 5.29065
4 *8:5 *8:2 1.287
5 *8:2 *90:Q 1.287
*END

*D_NET *44 0.00657836

*CONN
*I *87:A I *C 40.86 25.77 *L 0.0012 *D NOR2XL
*I *86:A I *C 31.9 25.77 *L 0.0012 *D NOR2XL
*I *83:A I *C 21.26 35.85 *L 0.0012 *D NOR2XL
*I *77:A I *C 43.1 25.77 *L 0.0012 *D NOR2XL
*I *69:Q O *C 25.62 25.06 *L 0 *D NAND2XL

*CAP
1 *87:A 0.000275884
2 *86:A 9.69244e-05
3 *83:A 8.41022e-05
4 *77:A 0.000334943
5 *69:Q 0.000448156
6 *44:5 0.000157895
7 *44:6 0.000463385
8 *44:7 0.000955501
9 *44:8 0.000527416
10 *44:9 0.000149938
11 *44:10 0.00144267
12 *44:11 9.07025e-05
13 *44:12 0.00110209
14 *44:13 0.000448749

*RES
1 *44:7 *44:11 3.09459
2 *44:8 *44:12 1.88592
3 *69:Q *44:6 2.07474
4 *44:5 *44:13 2.09639
5 *77:A *44:5 1.88592
6 *44:7 *44:9 0.388462
7 *44:10 *44:12 1.99641
8 *87:A *44:13 3.17292
9 *44:6 *44:10 1.88592
10 *44:10 *44:11 5.15852
11 *44:12 *44:13 2.9838
12 *44:8 *86:A 1.287
13 *44:9 *83:A 1.287
*END

*D_NET *31 0.00548669

*CONN
*P *31 O *C 47.88 0 *L 0
*I *62:Q O *C 65.49 26.44 *L 0 *D CLKBUFX3

*CAP
1 *31 0.000302365
2 *31:2 0.00113919
3 *31:3 0.00213534
4 *31:4 0.0019098

*RES
1 *62:Q *31:2 4.28162
2 *31:3 *31:4 7.06578
3 *31:2 *31:3 7.4867
4 *31:4 *31 1.287
*END

*D_NET *10 0.00326406

*CONN
*I *77:Q O *C 42.66 25.96 *L 0 *D NOR2XL
*I *57:A I *C 32.2 35 *L 0.00225 *D CLKBUFX3

*CAP
1 *10:2 0.000406189
2 *10:3 0.00276925
3 *10:4 8.86213e-05

*RES
1 *57:A *10:3 5.77908
2 *10:3 *10:4 5.06936
3 *10:4 *10:2 1.287
4 *10:2 *77:Q 1.287
*END

*D_NET *46 0.0101811

*CONN
*I *89:A I *C 15.7 25.77 *L 0.0012 *D NOR2XL
*I *80:A I *C 61.62 25.77 *L 0.0012 *D NOR2XL
*I *76:A I *C 53.78 15.69 *L 0.0012 *D NOR2XL
*I *75:A I *C 17.94 15.69 *L 0.0012 *D NOR2XL
*I *71:Q O *C 36.82 14.98 *L 0 *D NAND2XL

*CAP
1 *80:A 8.71321e-05
2 *76:A 8.32123e-05
3 *75:A 8.12546e-05
4 *46:5 0.00155349
5 *46:6 0.000431196
6 *46:7 0.00223653
7 *46:8 0.00012585
8 *46:9 0.00323711
9 *46:10 0.000361558
10 *46:11 0.000162821
11 *46:12 0.000126422
12 *46:13 0.000111452
13 *46:14 0.000118658
14 *46:15 0.000229829
15 *46:16 0.00123463

*RES
1 *46:8 *46:9 2.78416
2 *46:5 *46:11 4.18165
3 *46:12 *46:16 1.8751
4 *46:7 *46:16 7.27624
5 *46:9 *46:14 8.07481
6 *46:5 *46:16 4.0928
7 *46:8 *46:15 1.88592
8 *46:6 *46:7 0.643424
9 *46:9 *46:13 0.188821
10 *46:14 *46:6 1.287
11 *46:15 *46:10 1.287
12 *46:6 *71:Q 1.287
13 *46:10 *89:A 1.287
14 *46:11 *80:A 1.287
15 *46:12 *76:A 1.287
16 *46:13 *75:A 1.287
*END

*D_NET *32 0.00565908

*CONN
*P *32 O *C 49 0 *L 0
*I *54:Q O *C 61.01 36.52 *L 0 *D CLKBUFX3

*CAP
1 *32 0.000288893
2 *32:2 0.00131728
3 *32:3 0.00133855
4 *32:4 0.00271436

*RES
1 *54:Q *32:2 4.48126
2 *32:3 *32:4 10.4597
3 *32:2 *32:3 5.49029
4 *32:4 *32 1.287
*END

*D_NET *11 0.00259403

*CONN
*I *83:Q O *C 20.82 36.04 *L 0 *D NOR2XL
*I *58:A I *C 36.12 35 *L 0.00225 *D CLKBUFX3

*CAP
1 *11:2 0.000421155
2 *11:3 0.000170403
3 *11:4 0.000202698
4 *11:5 0.00179977

*RES
1 *58:A *11:2 3.17292
2 *11:3 *11:4 0.343962
3 *11:2 *11:5 6.48309
4 *11:5 *11:3 1.287
5 *11:3 *83:Q 1.287
*END

*D_NET *47 0.011917

*CONN
*I *90:A I *C 57.14 35.85 *L 0.0012 *D NOR2XL
*I *85:A I *C 52.66 25.77 *L 0.0012 *D NOR2XL
*I *82:A I *C 26.9 15.69 *L 0.0012 *D NOR2XL
*I *79:A I *C 44.82 15.69 *L 0.0012 *D NOR2XL
*I *72:Q O *C 24.5 35.14 *L 0 *D NAND2XL

*CAP
1 *85:A 0.000138215
2 *79:A 8.93562e-05
3 *72:Q 0.000219846
4 *47:5 0.00016452
5 *47:6 0.000394972
6 *47:7 0.000753349
7 *47:8 0.000933037
8 *47:9 0.000174875
9 *47:10 0.0031167
10 *47:11 0.000262455
11 *47:12 0.000394932
12 *47:13 0.00164571
13 *47:14 0.000487167
14 *47:15 0.00110998
15 *47:16 0.000241742
16 *47:17 0.000261491
17 *47:18 8.96005e-05
18 *47:19 0.000173722
19 *47:20 0.00100281
20 *47:21 0.000173073
21 *47:22 8.94849e-05

*RES
1 *47:8 *47:15 2.59534
2 *47:7 *47:15 3.20508
3 *47:18 *47:19 0.343962
4 *47:14 *47:20 2.27439
5 *47:9 *47:10 2.9838
6 *47:9 *47:13 4.18195
7 *47:8 *47:20 5.18016
8 *47:5 *47:13 3.87152
9 *47:6 *47:7 5.86823
10 *72:Q *47:5 0.931124
11 *47:10 *47:11 0.588103
12 *47:21 *47:22 0.393872
13 *47:16 *47:17 0.499103
14 *90:A *47:6 1.68628
15 *47:10 *47:20 7.47588
16 *85:A *47:15 3.19755
17 *47:21 *47:18 1.287
18 *47:22 *47:16 1.287
19 *47:18 *47:12 1.287
20 *47:16 *47:11 1.287
21 *47:12 *82:A 1.287
22 *47:14 *79:A 1.287
*END

*D_NET *33 0.00514216

*CONN
*P *33 O *C 50.12 0 *L 0
*I *63:Q O *C 24.05 16.36 *L 0 *D CLKBUFX3

*CAP
1 *33 0.000295156
2 *63:Q 8.76587e-05
3 *33:2 0.000134217
4 *33:3 0.00116278
5 *33:4 0.00331365
6 *33:5 0.000148702

*RES
1 *33:2 *33:3 3.19426
2 *33:4 *33:5 1.98559
3 *33:2 *33:4 11.5687
4 *33 *33:3 1.287
5 *33:5 *63:Q 1.287
*END

*D_NET *12 0.00623182

*CONN
*I *86:Q O *C 31.46 25.96 *L 0 *D NOR2XL
*I *59:A I *C 65.8 14.84 *L 0.00225 *D CLKBUFX3

*CAP
1 *86:Q 0.00016356
2 *12:2 0.000127765
3 *12:3 0.000483159
4 *12:4 0.00545734

*RES
1 *86:Q *12:2 0.623552
2 *59:A *12:3 3.37257
3 *12:3 *12:4 14.3637
4 *12:2 *12:4 5.26901
*END

*D_NET *48 0.00196601

*CONN
*I *92:Q O *C 26.26 36.34 *L 0 *D INVXL
*I *73:A I *C 26.04 29.96 *L 0.00143 *D NAND2XL
*I *67:B I *C 24.36 29.96 *L 0.00231 *D OR2X3

*CAP
1 *92:Q 0.000138661
2 *48:3 0.000120946
3 *48:4 0.000255395
4 *48:5 0.000200467
5 *48:6 0.000174086
6 *48:7 0.000411447
7 *48:8 1.29826e-06
8 *48:9 0.000663709

*RES
1 *48:7 *48:10 1.69169
2 *48:7 *48:9 0.0979754
3 *48:4 *48:5 0.449193
4 *48:3 *48:6 1.68023
5 *48:8 *48:9 1.39621
6 *92:Q *48:3 0.623552
7 *48:6 *48:8 0.092565
8 *48:10 *48:4 1.287
9 *48:4 *73:A 1.287
10 *48:9 *67:B 2.574
*END

*D_NET *18 0.00727653

*CONN
*P *18 O *C 33.32 0 *L 0
*I *49:Q O *C 68.85 36.52 *L 0 *D CLKBUFX3

*CAP
1 *18 0.000210962
2 *18:2 0.00354664
3 *18:3 0.00330285
4 *18:4 0.000216076

*RES
1 *49:Q *18:2 13.2655
2 *18:3 *18:4 0.388462
3 *18:2 *18:3 15.1622
4 *18 *18:4 1.287
*END

*D_NET *34 0.00997208

*CONN
*P *34 I *C 42.28 49.84 *L 0
*I *91:A I *C 55.72 36.12 *L 0.00136 *D INVXL
*I *71:B I *C 36.68 15.4 *L 0.00151 *D NAND2XL
*I *69:B I *C 25.48 25.48 *L 0.00151 *D NAND2XL

*CAP
1 *34 0.000529679
2 *91:A 0.000190187
3 *71:B 0.000886555
4 *69:B 0.000413552
5 *34:4 8.79316e-05
6 *34:5 0.000550243
7 *34:6 0.000330881
8 *34:7 0.00150457
9 *34:8 0.00166747
10 *34:9 0.000116713
11 *34:10 0.000104329
12 *34:11 0.00121401
13 *34:12 0.000723826
14 *34:13 7.8308e-05
15 *34:14 0.00157383

*RES
1 *34:10 *34:14 4.58093
2 *91:A *34:15 0.914307
3 *34:15 *34:4 0.305558
4 *34 *34:10 3.28341
5 *34:6 *34:13 1.87987
6 *34:6 *34:7 6.15984
7 *34:16 *34:14 1.90214
8 *34:4 *34:5 2.75133
9 *34:11 *34:14 3.38785
10 *34:7 *34:8 4.31441
11 *34:17 *34:11 0.188821
12 *34:17 *34:12 1.79549
13 *71:B *34:7 4.17113
14 *34:5 *34:16 0.305558
15 *34:8 *34:9 4.55959
16 *34:12 *34:13 0.188821
17 *69:B *34:9 1.85384
*END

*D_NET *13 0.00471742

*CONN
*I *87:Q O *C 40.42 25.96 *L 0 *D NOR2XL
*I *60:A I *C 14.28 14.84 *L 0.00225 *D CLKBUFX3

*CAP
1 *87:Q 0.000207478
2 *60:A 0.000297724
3 *13:2 0.000912232
4 *13:3 0.00329999

*RES
1 *60:A *13:3 3.37257
2 *87:Q *13:2 3.47223
3 *13:2 *13:3 11.968
*END

*D_NET *30 0.00401552

*CONN
*P *30 O *C 46.76 0 *L 0
*I *53:Q O *C 33.01 16.36 *L 0 *D CLKBUFX3

*CAP
1 *30 0.000335265
2 *53:Q 8.79164e-05
3 *30:2 0.00251621
4 *30:3 0.000162833
5 *30:4 8.45983e-05
6 *30:5 0.000828693

*RES
1 *30:2 *30:3 2.38488
2 *30:2 *30:4 5.88957
3 *30:4 *30:5 4.08198
4 *30:5 *30 1.287
5 *30:3 *53:Q 1.287
*END

*D_NET *9 0.00476459

*CONN
*I *70:A I *C 14.28 35 *L 0.00143 *D NAND2XL
*I *69:A I *C 24.36 24.92 *L 0.00143 *D NAND2XL
*I *66:Q O *C 36.26 23.94 *L 0 *D CLKINVX1

*CAP
1 *9:3 0.000351868
2 *9:4 0.000157242
3 *9:5 0.00160077
4 *9:6 0.00209054
5 *9:7 0.000462286
6 *9:8 0.000101887

*RES
1 *9:5 *9:8 5.47947
2 *9:5 *9:7 0.787745
3 *9:4 *9:7 1.19785
4 *9:4 *9:6 6.17836
5 *70:A *9:6 3.6827
6 *9:8 *9:3 1.287
7 *9:3 *66:Q 1.287
8 *9:7 *69:A 1.287
*END

*D_NET *45 0.00935807

*CONN
*I *88:A I *C 62.74 15.69 *L 0.0012 *D NOR2XL
*I *84:A I *C 29.1 35.85 *L 0.0012 *D NOR2XL
*I *81:A I *C 34.14 25.77 *L 0.0012 *D NOR2XL
*I *78:A I *C 38.62 25.77 *L 0.0012 *D NOR2XL
*I *70:Q O *C 15.54 35.14 *L 0 *D NAND2XL

*CAP
1 *88:A 7.5079e-05
2 *84:A 0.000215186
3 *70:Q 0.000108112
4 *45:5 0.000175113
5 *45:6 0.00158795
6 *45:7 0.000273544
7 *45:8 0.00124713
8 *45:9 0.00141357
9 *45:10 9.07927e-05
10 *45:11 0.000885431
11 *45:12 0.00052747
12 *45:13 0.00275869

*RES
1 *45:6 *45:12 6.07839
2 *84:A *45:12 2.97328
3 *45:5 *45:13 9.48311
4 *45:11 *45:13 1.59713
5 *45:10 *45:12 1.00903
6 *78:A *45:13 2.97328
7 *45:5 *45:8 3.18344
8 *45:6 *45:7 0.588103
9 *45:9 *45:11 0.798565
10 *45:9 *45:10 6.95529
11 *81:A *45:11 2.97328
12 *45:7 *70:Q 1.287
13 *45:8 *88:A 1.287
*END

