*SPEF "IEEE 1481-1998"
*DESIGN "nnspc"
*DATE "Mon Aug 28 16:33:40 2017"
*VENDOR "Cadence Design Systems, Inc."
*PROGRAM "Innovus"
*VERSION "15.28-s017_1"
*DESIGN_FLOW "COUPLING C" "PIN_CAP NONE" "NAME_SCOPE LOCAL"
*DIVIDER /
*DELIMITER :
*BUS_DELIMITER []
*T_UNIT 1 NS
*C_UNIT 1 PF
*R_UNIT 1 OHM
*L_UNIT 1 HENRY

// MMMC spef file for corner 'ams_rc_corner_minCaR'

*NAME_MAP

*1 Cfg_in
*2 Clk
*3 Resetn
*4 NSEL[4]
*5 NSEL[3]
*6 NSEL[2]
*7 NSEL[1]
*8 NSEL[0]
*9 DAC[3]
*10 DAC[2]
*11 DAC[1]
*12 DAC[0]
*13 RE
*14 FE_OFN0_Resetn
*15 CTS_4
*16 count[4]
*17 count[3]
*18 count[2]
*19 count[1]
*20 count[0]
*21 out[9]
*22 out[8]
*23 out[7]
*24 out[6]
*25 out[5]
*26 out[4]
*27 out[3]
*28 out[2]
*29 out[1]
*30 out[0]
*31 UNCONNECTED
*32 UNCONNECTED0
*33 UNCONNECTED1
*34 UNCONNECTED2
*35 UNCONNECTED3
*36 UNCONNECTED4
*37 UNCONNECTED5
*38 UNCONNECTED6
*39 UNCONNECTED7
*40 UNCONNECTED8
*41 UNCONNECTED9
*42 UNCONNECTED10
*43 UNCONNECTED11
*44 UNCONNECTED12
*45 UNCONNECTED13
*46 UNCONNECTED14
*47 UNCONNECTED15
*48 UNCONNECTED16
*49 UNCONNECTED17
*50 UNCONNECTED18
*51 UNCONNECTED19
*52 UNCONNECTED20
*53 UNCONNECTED21
*54 UNCONNECTED22
*55 n_0
*56 n_1
*57 n_2
*58 n_3
*59 n_4
*60 n_5
*61 n_6
*62 n_7
*63 n_8
*64 n_9
*65 n_10
*66 n_12
*67 n_13
*68 g33
*69 g34
*70 g140
*71 g144
*72 g141
*73 g143
*74 out_reg\[0\]
*75 out_reg\[1\]
*76 out_reg\[2\]
*77 out_reg\[3\]
*78 out_reg\[4\]
*79 out_reg\[5\]
*80 out_reg\[6\]
*81 out_reg\[7\]
*82 out_reg\[8\]
*83 out_reg\[9\]
*84 count_reg\[4\]
*85 count_reg\[2\]
*86 count_reg\[0\]
*87 g147
*88 g83
*89 RE_reg
*90 DAC_reg\[0\]
*91 DAC_reg\[1\]
*92 DAC_reg\[2\]
*93 DAC_reg\[3\]
*94 NSEL_reg\[0\]
*95 NSEL_reg\[1\]
*96 NSEL_reg\[3\]
*97 NSEL_reg\[2\]
*98 NSEL_reg\[4\]
*99 count_reg\[3\]
*100 count_reg\[1\]
*101 CTS_ccl_BUF_Clk_G0_L1_1
*102 g136
*103 g138
*104 g145
*105 g81
*106 FE_OFC0_Resetn


*PORTS

*1 I *C 40.6 70
*2 I *C 41.16 70
*3 I *C 41.72 70
*4 O *C 45.08 0
*5 O *C 43.96 0
*6 O *C 42.84 0
*7 O *C 41.72 0
*8 O *C 40.6 0
*9 O *C 39.48 0
*10 O *C 38.36 0
*11 O *C 37.24 0
*12 O *C 36.12 0
*13 O *C 46.2 0


*D_NET *1 0.00373421

*CONN
*P *1 I *C 40.6 70 *L 0
*I *83:D I *C 31.08 45.08 *L 0.00182 *D DFCX1

*CAP
1 *1:2 0.00102301
2 *1:3 8.277e-05
3 *1:4 6.474e-05
4 *1:5 6.663e-05
5 *1:6 0.00190619
6 *1:7 0.00059087

*RES
1 *1:7 *1 1.43557
2 *1:7 *1:6 2.93497
3 *1:5 *1:6 0.0930953
4 *1:4 *1:5 0.0930953
5 *1:3 *1:4 0.0930953
6 *1:2 *1:3 1.25256
7 *83:D *1:2 0.15375
*END

*D_NET *17 0.00447249

*CONN
*I *103:A I *C 23.24 50.12 *L 0.00409 *D XOR2X1
*I *99:Q O *C 23.8 55.72 *L 0 *D DFPX3
*I *70:B I *C 31.64 56.28 *L 0.00139 *D NOR2XL
*I *69:B I *C 35.56 38.92 *L 0.00139 *D NOR2XL

*CAP
1 *17:4 0.00014193
2 *17:6 0.00066003
3 *17:7 0.00033915
4 *17:8 8.219e-05
5 *17:9 0.00027127
6 *17:10 0.00010832
7 *17:11 0.00025467
8 *17:13 0.00179072
9 *17:14 0.00011472
10 *17:15 0.00070949

*RES
1 *17:5 *17:4 0.0960045
2 *17:4 *17:14 0.0960045
3 *70:B *17:14 0.3075
4 *17:15 *17:14 0.68252
5 *17:13 *17:15 0.3075
6 *17:13 *17:6 3.08264
7 *17:6 *69:B 1.87174
8 *17:15 *17:12 1.01779
9 *17:11 *17:12 0.0885964
10 *17:10 *17:11 0.192009
11 *17:9 *17:10 0.381109
12 *17:8 *17:9 0.0930953
13 *17:7 *17:8 0.384018
14 *103:A *17:7 0.15375
15 *99:Q *17:10 0.15375
*END

*D_NET *57 0.00508491

*CONN
*I *103:B I *C 21.7 49.96 *L 0.00369 *D XOR2X1
*I *73:B1 I *C 18.2 40.04 *L 0.00235 *D AO21X3
*I *72:A I *C 29.4 56.28 *L 0.00138 *D INVXL
*I *71:Q O *C 26.78 46.12 *L 0 *D NOR2XL

*CAP
1 *103:B 0.00011928
2 *57:4 0.00015298
3 *57:7 0.00038674
4 *57:8 0.00045197
5 *57:9 0.00013547
6 *57:10 0.00035972
7 *57:11 0.00083352
8 *57:12 0.00099125
9 *57:13 0.00032153
10 *57:14 0.00064729
11 *103:B *14:26 0.00042715
12 *57:11 *15:16 0.00025801

*RES
1 *57:10 *57:11 0.297011
2 *57:14 *57:11 0.930784
3 *57:14 *57:13 0.629274
4 *71:Q *57:13 0.15375
5 *57:4 *57:13 0.0960045
6 *57:5 *57:4 0.0960045
7 *57:14 *57:9 1.1138
8 *57:8 *57:9 0.576027
9 *73:B1 *57:8 0.3075
10 *57:11 *57:12 0.381109
11 *57:12 *57:7 1.59091
12 *57:7 *72:A 1.01826
13 *57:10 *57:6 0.679611
14 *103:B *57:6 0.164774
*END

*D_NET *2 0.00450312

*CONN
*P *2 I *C 41.16 70 *L 0
*I *105:A I *C 44.52 45.08 *L 0.00594 *D NOR2X6
*I *101:A I *C 35 55.16 *L 0.00308 *D CLKBUFX6

*CAP
1 *2 0.00016027
2 *2:3 0.00014193
3 *2:5 0.00174105
4 *2:6 0.0009244
5 *2:7 0.00113748
6 *2:8 0.00026411
7 *2:10 0.00013388

*RES
1 *2:5 *2:8 0.15375
2 *2:10 *2:8 0.72078
3 *2:7 *2:10 1.72808
4 *105:A *2:7 0.15375
5 *2:8 *2:6 1.2098
6 *2:3 *2:6 0.0960045
7 *2:4 *2:3 0.0960045
8 *101:A *2:6 0.15375
9 *2:9 *2:5 2.40011
10 *2:9 *2 0.15375
*END

*D_NET *18 0.00459204

*CONN
*I *85:Q O *C 22.54 46.9 *L 0 *D DFCX1
*I *73:A2 I *C 19.69 39.34 *L 0.00189 *D AO21X3
*I *71:B I *C 27.16 46.2 *L 0.00139 *D NOR2XL
*I *68:A I *C 33.58 35.85 *L 0.00118 *D NOR2XL

*CAP
1 *18:4 0.00015298
2 *18:6 3.825e-05
3 *18:8 0.00100944
4 *18:9 0.00014254
5 *18:10 0.00021649
6 *18:11 0.00018168
7 *18:12 0.00128809
8 *18:14 0.00079108
9 *18:15 0.00061145
10 *18:16 0.00016004

*RES
1 *18:12 *18:13 1.72358
2 *18:16 *18:13 0.333852
3 *18:15 *18:16 1.15205
4 *18:14 *18:15 0.768036
5 *18:10 *18:14 0.15375
6 *85:Q *18:10 0.15375
7 *18:4 *18:10 0.0960045
8 *18:5 *18:4 0.0960045
9 *18:14 *18:9 0.729777
10 *18:8 *18:9 1.25706
11 *73:A2 *18:8 0.15375
12 *18:15 *18:11 0.240757
13 *71:B *18:11 0.15375
14 *18:6 *18:11 0.0240011
15 *18:7 *18:6 0.0240011
16 *68:A *18:12 0.15375
*END

*D_NET *58 0.00092609

*CONN
*I *85:D I *C 14.84 45.08 *L 0.00182 *D DFCX1
*I *73:Q O *C 17.29 40.54 *L 0 *D AO21X3

*CAP
1 *58:2 0.00024007
2 *58:3 0.00068602

*RES
1 *58:2 *73:Q 0.676863
2 *58:3 *58:2 0.921786
3 *85:D *58:3 0.15375
*END

*D_NET *3 0.00217482

*CONN
*P *3 I *C 41.72 70 *L 0
*I *106:A I *C 42.28 55.16 *L 0.00215 *D CLKBUFX2

*CAP
1 *3:2 0.00036317
2 *3:3 8.428e-05
3 *3:4 0.00040512
4 *3:5 0.00121801
5 *3:7 0.00010424

*RES
1 *3 *3:7 0.0870068
2 *3:7 *3:4 0.438854
3 *3:4 *3:6 0.105002
4 *3:5 *3:6 1.80927
5 *3:3 *3:5 0.0930953
6 *3:2 *3:3 0.292513
7 *106:A *3:2 0.15375
*END

*D_NET *19 0.00376203

*CONN
*I *104:A I *C 25.48 29.96 *L 0.00409 *D XOR2X1
*I *100:Q O *C 24.92 25.48 *L 0 *D DFPX3
*I *87:A I *C 22.12 40.04 *L 0.00195 *D OR2X3
*I *68:B I *C 32.76 36.12 *L 0.00139 *D NOR2XL

*CAP
1 *87:A 0.0001678
2 *19:4 0.00010356
3 *19:5 0.00066629
4 *19:6 0.00047308
5 *19:7 0.0006147
6 *19:8 8.101e-05
7 *19:10 5.89e-05
8 *19:11 0.00023119
9 *19:12 0.00059406
10 *19:13 0.00016507
11 *19:14 0.00060637

*RES
1 *19:12 *19:4 0.196508
2 *19:14 *19:4 1.04864
3 *19:11 *19:14 0.297011
4 *19:10 *19:11 0.0930953
5 *19:8 *19:10 0.0930953
6 *19:6 *19:8 0.484522
7 *100:Q *19:6 0.15375
8 *19:11 *19:13 0.1891
9 *104:A *19:13 0.15375
10 *19:7 *19:12 0.15375
11 *19:7 *68:B 1.70104
12 *19:12 *19:9 1.02679
13 *19:5 *19:9 1.5192
14 *87:A *19:5 0.347315
*END

*D_NET *59 8.615e-05

*CONN
*I *72:Q O *C 29.74 56.5 *L 0 *D INVXL
*I *70:A I *C 30.82 56.01 *L 0.00118 *D NOR2XL

*CAP
1 *72:Q 8.615e-05

*RES
1 *72:Q *70:A 0.170696
*END

*D_NET *4 0.00526013

*CONN
*P *4 O *C 45.08 0 *L 0
*I *98:Q O *C 55.16 38.92 *L 0 *D DFCX6

*CAP
1 *4 0.00011762
2 *4:2 6.822e-05
3 *4:5 0.00016154
4 *4:6 0.00032925
5 *4:7 5.522e-05
6 *4:9 0.00226344
7 *4:10 0.00040223
8 *4 *5 0.00134784
9 *4:10 *6:2 0.00026845
10 *4:6 *14:27 0.00024632

*RES
1 *4:9 *4:4 5.65686
2 *4:12 *4:4 0.184601
3 *4:11 *4:12 0.105002
4 *4:11 *4:10 0.438854
5 *4:10 *4:6 1.87283
6 *4:6 *4:8 0.192009
7 *98:Q *4:8 0.15375
8 *4:7 *4:9 0.0930953
9 *4:5 *4:7 0.288014
10 *4 *4:5 0.15375
11 *4:2 *4 0.0404723
12 *4:3 *4:2 0.0404723
*END

*D_NET *20 0.00080438

*CONN
*I *87:B I *C 21.56 40.04 *L 0.00222 *D OR2X3
*I *86:Q O *C 22.54 36.82 *L 0 *D DFCX1

*CAP
1 *20:3 0.00019097
2 *20:4 0.00061341

*RES
1 *20:4 *20:2 0.192009
2 *86:Q *20:2 0.3075
3 *20:4 *20:3 0.573118
4 *87:B *20:3 0.15375
*END

*D_NET *60 0.00155637

*CONN
*I *102:B I *C 38.22 55.32 *L 0.00369 *D XOR2X1
*I *70:Q O *C 31.26 56.2 *L 0 *D NOR2XL

*CAP
1 *60:2 0.00014193
2 *60:4 0.0002701
3 *60:5 0.00038515
4 *60:6 0.00075919

*RES
1 *60:3 *60:2 0.0960045
2 *60:2 *60:4 0.0960045
3 *70:Q *60:4 0.15375
4 *60:6 *60:4 1.39281
5 *60:6 *60:5 0.354757
6 *102:B *60:5 0.15375
*END

*D_NET *5 0.00733989

*CONN
*P *5 O *C 43.96 0 *L 0
*I *96:Q O *C 55.16 49 *L 0 *D DFCX6

*CAP
1 *5 7.978e-05
2 *5:2 6.822e-05
3 *5:5 0.00191591
4 *5:6 0.00044462
5 *5:7 2.053e-05
6 *5:8 0.00028803
7 *5:10 0.00023062
8 *5:12 5.878e-05
9 *5 *4 0.00134784
10 *5 *6 0.00154408
11 *5:6 *14:27 0.00033904
12 *5:6 *15:17 0.00039874
13 *5:6 *21:3 0.00043744
14 *5:6 *23:3 0.00016626

*RES
1 *5 *5:5 0.15375
2 *5:5 *5:4 5.94778
3 *5:17 *5:4 0.86854
4 *5:17 *5:12 0.242346
5 *5:12 *5:14 0.288014
6 *5:13 *5:14 0.0811884
7 *5:13 *5:15 1.25706
8 *5:15 *5:16 0.0930953
9 *5:16 *5:8 0.429857
10 *5:8 *5:9 0.285104
11 *5:6 *5:9 0.105002
12 *5:6 *5:7 0.957136
13 *5:7 *5:10 0.0930953
14 *5:10 *5:11 0.276107
15 *96:Q *5:11 0.15375
16 *5:2 *5 0.0404723
17 *5:3 *5:2 0.0404723
*END

*D_NET *21 0.00511716

*CONN
*I *98:D I *C 45.64 40.04 *L 0.00165 *D DFCX6
*I *83:Q O *C 38.78 46.9 *L 0 *D DFCX1
*I *82:D I *C 59.64 55.16 *L 0.00182 *D DFCX1

*CAP
1 *21:3 0.00025412
2 *21:4 0.00021185
3 *21:5 0.00079182
4 *21:6 0.00015329
5 *21:7 0.00117019
6 *21:8 5.658e-05
7 *21:9 0.00040887
8 *21:11 0.00059384
9 *21:3 *5:6 0.00043744
10 *21:5 *15:18 0.00029948
11 *21:3 *23:3 0.0005239
12 *21:5 *64:11 0.00021578

*RES
1 *83:Q *21:6 0.15375
2 *21:5 *21:6 0.969043
3 *21:5 *21:4 0.485267
4 *21:11 *21:4 0.724533
5 *21:11 *21:3 0.345759
6 *98:D *21:3 0.15375
7 *21:11 *21:7 2.44886
8 *21:7 *21:8 1.92909
9 *21:8 *21:9 0.0930953
10 *21:9 *21:10 0.468116
11 *82:D *21:10 0.15375
*END

*D_NET *61 0.0012447

*CONN
*I *103:Q O *C 21.22 50.62 *L 0 *D XOR2X1
*I *99:D I *C 15.26 55.86 *L 0.00183 *D DFPX3

*CAP
1 *61:2 0.00056886
2 *61:3 0.00067584

*RES
1 *61:2 *103:Q 1.70104
2 *61:3 *61:2 1.01779
3 *99:D *61:3 0.15375
*END

*D_NET *6 0.00571413

*CONN
*P *6 O *C 42.84 0 *L 0
*I *97:Q O *C 55.16 36.12 *L 0 *D DFCX6

*CAP
1 *6 0.00011435
2 *6:2 0.00073167
3 *6:3 6.822e-05
4 *6:5 3.786e-05
5 *6:9 0.00025734
6 *6:11 0.00130202
7 *6:13 6.341e-05
8 *6:14 0.00010013
9 *6:2 *4:10 0.00026845
10 *6 *5 0.00154408
11 *6:8 *8:2 0.00062898
12 *6:8 *14:27 0.00019888
13 *6:8 *15:17 0.0001749
14 *6:8 *64:12 0.00022384

*RES
1 *6 *6:11 0.15375
2 *6:11 *6:12 3.92428
3 *6:8 *6:12 0.105002
4 *6:8 *6:10 1.82118
5 *6:10 *6:14 0.0930953
6 *6:14 *6:7 0.184601
7 *6:13 *6:7 0.100503
8 *6:2 *6:13 0.15375
9 *6:2 *6:9 2.25685
10 *97:Q *6:9 0.15375
11 *6:5 *6:9 0.0240011
12 *6:6 *6:5 0.0240011
13 *6:3 *6 0.0404723
14 *6:4 *6:3 0.0404723
*END

*D_NET *22 0.00360783

*CONN
*I *96:D I *C 45.64 50.12 *L 0.00165 *D DFCX6
*I *82:Q O *C 67.34 56.98 *L 0 *D DFCX1
*I *81:D I *C 60.2 50.12 *L 0.00182 *D DFCX1

*CAP
1 *22:3 0.0001971
2 *22:4 0.00014925
3 *22:5 0.00034608
4 *22:6 0.00096372
5 *22:7 0.00015073
6 *22:8 0.00180095

*RES
1 *81:D *22:5 0.15375
2 *22:8 *22:5 0.345759
3 *22:8 *22:4 2.64987
4 *22:3 *22:4 0.192009
5 *96:D *22:3 0.15375
6 *22:8 *22:6 1.40181
7 *22:6 *22:7 0.960046
8 *82:Q *22:7 0.15375
*END

*D_NET *62 0.00081937

*CONN
*I *102:Q O *C 38.7 54.66 *L 0 *D XOR2X1
*I *84:D I *C 40.04 50.12 *L 0.00182 *D DFCX1

*CAP
1 *102:Q 0.00015817
2 *62:3 0.0006612

*RES
1 *62:3 *62:2 0.921786
2 *102:Q *62:2 0.33547
3 *84:D *62:3 0.15375
*END

*D_NET *7 0.00413652

*CONN
*P *7 O *C 41.72 0 *L 0
*I *95:Q O *C 68.04 15.96 *L 0 *D DFCX6

*CAP
1 *7 0.0001694
2 *7:2 8.832e-05
3 *7:3 0.00134315
4 *7:4 0.00014615
5 *7:5 0.00072986
6 *7:6 0.00051003
7 *7:8 3.782e-05
8 *7:9 0.00111179

*RES
1 *7 *7:5 0.182793
2 *7:5 *7:7 1.05314
3 *7:6 *7:7 0.0811884
4 *7:6 *7:8 0.969043
5 *7:8 *7:9 0.0930953
6 *7:9 *7:2 2.54646
7 *7:2 *7:3 0.0915057
8 *7:3 *7:4 2.30411
9 *95:Q *7:4 0.15375
*END

*D_NET *23 0.00496237

*CONN
*I *97:D I *C 45.64 35 *L 0.00165 *D DFCX6
*I *81:Q O *C 67.9 48.3 *L 0 *D DFCX1
*I *80:D I *C 59.64 45.08 *L 0.00182 *D DFCX1

*CAP
1 *23:3 0.00012749
2 *23:4 0.00056353
3 *23:5 0.00046255
4 *23:6 0.0001194
5 *23:7 0.00027055
6 *23:8 0.00049404
7 *23:9 6.727e-05
8 *23:10 0.00058029
9 *23:11 0.0001195
10 *23:13 4.074e-05
11 *23:14 0.00046002
12 *23:3 *5:6 0.00016626
13 *23:8 *14:28 0.00026845
14 *23:6 *15:18 0.00035747
15 *23:3 *21:3 0.0005239
16 *23:7 *24:3 0.00034091

*RES
1 *23:8 *23:9 0.777034
2 *81:Q *23:9 0.15375
3 *23:14 *23:8 1.58482
4 *23:13 *23:14 0.381109
5 *23:12 *23:13 0.0930953
6 *23:10 *23:12 1.54507
7 *23:10 *23:11 0.0811884
8 *23:11 *23:6 0.441764
9 *23:5 *23:6 0.861132
10 *23:3 *23:5 0.1891
11 *23:3 *23:4 0.676531
12 *97:D *23:4 0.15375
13 *23:14 *23:7 0.345759
14 *80:D *23:7 0.15375
*END

*D_NET *63 0.00194449

*CONN
*I *105:B I *C 41.72 45.64 *L 0.00697 *D NOR2X6
*I *88:Q O *C 35.11 34.1 *L 0 *D NAND3X1

*CAP
1 *88:Q 0.00058875
2 *63:2 0.00135574

*RES
1 *105:B *63:4 0.3075
2 *63:4 *63:2 1.63208
3 *63:3 *63:2 0.15375
4 *88:Q *63:3 1.53034
*END

*D_NET *8 0.00582281

*CONN
*P *8 O *C 40.6 0 *L 0
*I *94:Q O *C 68.04 18.76 *L 0 *D DFCX6

*CAP
1 *8 4.422e-05
2 *8:2 0.00186663
3 *8:3 0.00143117
4 *8:4 2.2e-05
5 *8:5 0.00032765
6 *8:7 0.0001382
7 *8:2 *6:8 0.00062898
8 *8:3 *14:29 0.00025557
9 *8:3 *15:19 0.00035854
10 *8:3 *64:13 0.00074985

*RES
1 *8 *8:4 0.0867885
2 *8:4 *8:2 0.0885965
3 *8:2 *8:6 3.71492
4 *8:3 *8:6 0.15375
5 *8:7 *8:3 4.75297
6 *8:5 *8:7 0.297011
7 *94:Q *8:5 0.15375
*END

*D_NET *24 0.00581375

*CONN
*I *95:D I *C 58.52 14.84 *L 0.00165 *D DFCX6
*I *80:Q O *C 67.34 46.9 *L 0 *D DFCX1
*I *79:D I *C 60.2 40.04 *L 0.00182 *D DFCX1

*CAP
1 *24:3 0.00065947
2 *24:4 0.00015146
3 *24:6 0.00052137
4 *24:7 0.00036839
5 *24:8 0.00051675
6 *24:9 0.00017179
7 *24:10 8.235e-05
8 *24:11 0.000187
9 *24:12 0.00177328
10 *24:13 0.00024392
11 *24:16 0.00016864
12 *24:17 0.00040274
13 *24:12 *14:30 0.00022568
14 *24:3 *23:7 0.00034091

*RES
1 *24:5 *24:4 0.0960045
2 *24:4 *24:16 0.0960045
3 *80:Q *24:16 0.3075
4 *24:16 *24:17 0.15375
5 *24:17 *24:15 1.1138
6 *24:13 *24:15 0.0885964
7 *24:3 *24:13 1.14915
8 *24:11 *24:3 0.1891
9 *24:11 *24:14 0.105002
10 *24:14 *24:6 0.664624
11 *24:12 *24:6 2.77672
12 *24:10 *24:12 0.0930953
13 *24:8 *24:10 0.669123
14 *24:7 *24:8 0.48902
15 *95:D *24:7 0.15375
16 *24:9 *24:3 0.201007
17 *79:D *24:9 0.15375
*END

*D_NET *64 0.0148904

*CONN
*I *105:Q O *C 42.46 46.76 *L 0 *D NOR2X6
*I *98:CP I *C 42.84 40.6 *L 0.00189 *D DFCX6
*I *97:CP I *C 42.84 34.44 *L 0.00189 *D DFCX6
*I *96:CP I *C 42.84 50.68 *L 0.00189 *D DFCX6
*I *95:CP I *C 55.72 14.28 *L 0.00189 *D DFCX6
*I *94:CP I *C 55.72 20.44 *L 0.00189 *D DFCX6
*I *93:CP I *C 41.16 30.52 *L 0.00189 *D DFCX6
*I *92:CP I *C 40.6 14.28 *L 0.00189 *D DFCX6
*I *91:CP I *C 27.72 20.44 *L 0.00189 *D DFCX6
*I *90:CP I *C 12.6 20.44 *L 0.00189 *D DFCX6
*I *89:CP I *C 25.48 14.28 *L 0.00189 *D DFCX6

*CAP
1 *64:11 0.00034961
2 *64:12 0.00052337
3 *64:13 0.00049594
4 *64:14 0.00015298
5 *64:16 0.0001197
6 *64:18 0.00015298
7 *64:20 0.00012714
8 *64:21 9.72e-05
9 *64:22 0.00016846
10 *64:23 0.00062572
11 *64:24 0.00016144
12 *64:25 0.00010415
13 *64:26 0.00041902
14 *64:27 0.00055756
15 *64:28 0.00020925
16 *64:29 0.00028759
17 *64:30 0.00025307
18 *64:32 5.494e-05
19 *64:33 0.00011521
20 *64:34 0.00064321
21 *64:35 0.00041877
22 *64:36 0.00108514
23 *64:37 0.00070289
24 *64:40 9.813e-05
25 *64:41 0.00024415
26 *64:42 2.507e-05
27 *64:43 0.00047143
28 *64:45 0.00011811
29 *64:47 0.00014738
30 *64:48 0.00063577
31 *64:49 9.621e-05
32 *64:50 0.00027482
33 *64:51 0.0003981
34 *64:52 0.00014816
35 *64:53 1.681e-05
36 *64:54 0.00117165
37 *64:55 0.00106443
38 *64:12 *6:8 0.00022384
39 *64:13 *8:3 0.00074985
40 *64:20 *15:20 0.00096538
41 *64:11 *21:5 0.00021578

*RES
1 *64:19 *64:18 0.0960045
2 *64:18 *64:33 0.0960045
3 *64:20 *64:33 0.15375
4 *64:20 *90:CP 0.33547
5 *64:54 *64:33 2.64987
6 *64:54 *64:55 0.288014
7 *64:47 *64:55 0.15375
8 *91:CP *64:47 0.15375
9 *64:14 *64:47 0.0960045
10 *64:15 *64:14 0.0960045
11 *64:55 *64:50 2.44886
12 *64:12 *64:50 0.669122
13 *64:49 *64:12 0.0930953
14 *64:13 *64:49 0.393016
15 *92:CP *64:13 0.15375
16 *64:50 *64:26 0.393016
17 *64:51 *64:26 0.676531
18 *64:51 *64:30 0.676531
19 *93:CP *64:30 0.15375
20 *64:52 *64:30 0.340515
21 *64:52 *64:32 0.340515
22 *64:24 *64:32 0.15375
23 *97:CP *64:24 0.506167
24 *64:53 *64:32 0.0645017
25 *64:53 *64:21 0.0360017
26 *64:31 *64:21 0.0885965
27 *64:23 *64:31 0.105002
28 *64:23 *64:11 0.861132
29 *64:11 *64:28 0.393016
30 *64:28 *64:25 0.293258
31 *64:42 *64:25 0.24451
32 *64:48 *64:42 1.68982
33 *64:45 *64:48 0.15375
34 *64:16 *64:45 0.0746528
35 *64:17 *64:16 0.0746528
36 *64:45 *64:29 0.21055
37 *96:CP *64:29 0.15375
38 *64:42 *64:35 0.345759
39 *64:35 *64:39 0.292513
40 *105:Q *64:39 0.15375
41 *64:11 *64:22 0.403872
42 *98:CP *64:22 0.426741
43 *64:26 *64:36 0.15375
44 *64:46 *64:36 2.30411
45 *64:46 *64:27 0.918877
46 *64:27 *64:38 0.201007
47 *64:34 *64:38 0.669123
48 *95:CP *64:34 0.15375
49 *64:46 *64:44 0.345759
50 *64:41 *64:44 0.384018
51 *94:CP *64:41 0.15375
52 *64:54 *64:43 0.630863
53 *64:40 *64:43 0.0930953
54 *64:37 *64:40 0.585025
55 *89:CP *64:37 0.15375
*END

*D_NET *9 0.00489118

*CONN
*P *9 O *C 39.48 0 *L 0
*I *93:Q O *C 53.48 28.84 *L 0 *D DFCX6

*CAP
1 *9 0.00015584
2 *9:2 6.822e-05
3 *9:4 0.00015146
4 *9:6 0.00011847
5 *9:7 0.0002133
6 *9:8 0.00025894
7 *9:9 0.00266216
8 *9:10 0.00099382
9 *9:12 4.621e-05
10 *9:13 0.00022276

*RES
1 *9:5 *9:4 0.0960045
2 *9:4 *9:8 0.0960045
3 *93:Q *9:8 0.15375
4 *9:13 *9:8 0.429857
5 *9:12 *9:13 0.0930953
6 *9:10 *9:12 1.54507
7 *9:10 *9:11 0.0811884
8 *9:11 *9:6 0.24451
9 *9:7 *9:6 0.331517
10 *9:9 *9:7 5.04998
11 *9 *9:9 0.15375
12 *9:2 *9 0.0404723
13 *9:3 *9:2 0.0404723
*END

*D_NET *25 0.00363463

*CONN
*I *94:D I *C 58.52 19.88 *L 0.00165 *D DFCX6
*I *79:Q O *C 67.9 38.22 *L 0 *D DFCX1
*I *78:D I *C 60.2 35 *L 0.00182 *D DFCX1

*CAP
1 *25:3 0.00015146
2 *25:5 0.00024226
3 *25:6 0.00015559
4 *25:7 0.0004388
5 *25:8 0.00166329
6 *25:9 0.00026519
7 *25:10 0.00071804

*RES
1 *25:4 *25:3 0.0960045
2 *25:3 *25:9 0.0960045
3 *79:Q *25:9 0.15375
4 *25:9 *25:10 0.15375
5 *25:10 *25:6 1.48882
6 *25:6 *25:7 0.580526
7 *25:8 *25:7 2.58472
8 *25:5 *25:8 0.297011
9 *94:D *25:5 0.15375
10 *78:D *25:7 0.15375
*END

*D_NET *65 0.00347674

*CONN
*I *104:B I *C 23.94 29.8 *L 0.00369 *D XOR2X1
*I *88:C I *C 35 34.44 *L 0.00169 *D NAND3X1
*I *86:QN O *C 24.73 34.7 *L 0 *D DFCX1
*I *86:D I *C 14.84 35 *L 0.00182 *D DFCX1

*CAP
1 *65:4 0.00015298
2 *65:6 0.00015298
3 *65:8 0.00042336
4 *65:9 0.00011609
5 *65:10 0.00026911
6 *65:11 0.00026293
7 *65:12 0.00017936
8 *65:13 0.00039657
9 *65:14 0.00039423
10 *65:15 0.00026922
11 *65:16 0.00039002
12 *65:17 0.00025225
13 *65:19 0.00021764

*RES
1 *65:13 *65:15 0.0930953
2 *65:15 *65:12 0.472615
3 *86:QN *65:12 0.15375
4 *65:12 *65:16 0.15375
5 *65:10 *65:16 0.763538
6 *65:10 *65:18 0.676531
7 *65:19 *65:18 0.0811884
8 *65:19 *65:17 0.441764
9 *88:C *65:17 0.15375
10 *65:4 *65:17 0.0960045
11 *65:5 *65:4 0.0960045
12 *65:8 *65:16 0.820538
13 *65:8 *65:14 0.907544
14 *65:11 *65:14 0.15375
15 *86:D *65:11 0.15375
16 *65:6 *65:11 0.0960045
17 *65:7 *65:6 0.0960045
18 *65:13 *65:9 0.546766
19 *104:B *65:9 0.158852
*END

*D_NET *10 0.0035576

*CONN
*P *10 O *C 38.36 0 *L 0
*I *92:Q O *C 52.92 15.96 *L 0 *D DFCX6

*CAP
1 *10 0.00015317
2 *10:2 0.00079045
3 *10:3 0.0004103
4 *10:4 9.015e-05
5 *10:5 0.00023661
6 *10:6 0.00123182
7 *10:7 6.821e-05
8 *10:8 0.00014615
9 *10:9 0.00043074

*RES
1 *10 *10:3 0.182793
2 *10:3 *10:5 0.477113
3 *10:5 *10:7 0.285104
4 *10:7 *10:2 0.0405942
5 *10:10 *10:2 1.30056
6 *10:9 *10:10 0.0811884
7 *10:9 *10:4 0.734276
8 *10:4 *10:6 0.0915057
9 *10:6 *10:8 2.1121
10 *92:Q *10:8 0.15375
*END

*D_NET *26 0.00407947

*CONN
*I *93:D I *C 43.96 29.96 *L 0.00165 *D DFCX6
*I *78:Q O *C 67.9 36.82 *L 0 *D DFCX1
*I *77:D I *C 58.52 29.96 *L 0.00182 *D DFCX1

*CAP
1 *26:3 0.00015146
2 *26:5 0.00015298
3 *26:7 0.00018
4 *26:8 0.00015559
5 *26:9 0.00025721
6 *26:10 0.00026541
7 *26:11 0.00064945
8 *26:12 0.00226737

*RES
1 *26:10 *26:12 0.15375
2 *26:12 *26:11 1.77683
3 *26:11 *26:7 0.86854
4 *26:8 *26:7 0.292513
5 *78:Q *26:8 0.15375
6 *26:12 *26:9 2.64987
7 *93:D *26:9 0.15375
8 *26:5 *26:9 0.0960045
9 *26:6 *26:5 0.0960045
10 *77:D *26:10 0.15375
11 *26:3 *26:10 0.0960045
12 *26:4 *26:3 0.0960045
*END

*D_NET *66 0.00085872

*CONN
*I *88:A I *C 35.75 35.14 *L 0.00149 *D NAND3X1
*I *69:Q O *C 35.94 39 *L 0 *D NOR2XL

*CAP
1 *66:2 0.00085872

*RES
1 *66:3 *66:2 0.859542
2 *88:A *66:2 0.15375
3 *69:Q *66:3 0.15375
*END

*D_NET *11 0.00287932

*CONN
*P *11 O *C 37.24 0 *L 0
*I *91:Q O *C 40.04 18.76 *L 0 *D DFCX6

*CAP
1 *11 0.00024706
2 *11:2 0.00222297
3 *11:4 0.00040929

*RES
1 *91:Q *11:3 0.15375
2 *11:2 *11:3 2.78413
3 *11:4 *11:2 0.621866
4 *11 *11:4 0.374802
*END

*D_NET *27 0.00544827

*CONN
*I *92:D I *C 43.4 14.84 *L 0.00165 *D DFCX6
*I *77:Q O *C 66.22 28.14 *L 0 *D DFCX1
*I *76:D I *C 52.92 19.88 *L 0.00182 *D DFCX1

*CAP
1 *27:3 0.00036201
2 *27:4 0.00013822
3 *27:5 0.00059219
4 *27:6 0.00022344
5 *27:7 4.442e-05
6 *27:8 0.00018378
7 *27:9 8.335e-05
8 *27:10 0.00088458
9 *27:12 0.0019305
10 *27:5 *14:31 0.00083349
11 *27:5 *15:21 0.00017229

*RES
1 *27:3 *27:4 0.292513
2 *27:12 *27:4 1.78583
3 *27:12 *27:5 0.734276
4 *76:D *27:5 0.15375
5 *27:12 *27:6 2.45786
6 *27:6 *27:7 0.288014
7 *27:7 *27:10 0.0930953
8 *27:10 *27:11 1.42525
9 *27:8 *27:11 0.105002
10 *27:8 *27:9 0.285104
11 *77:Q *27:9 0.15375
12 *92:D *27:3 0.15375
*END

*D_NET *67 0.00081103

*CONN
*I *88:B I *C 35.39 36.26 *L 0.00155 *D NAND3X1
*I *68:Q O *C 33.14 36.04 *L 0 *D NOR2XL

*CAP
1 *68:Q 0.00027074
2 *67:2 0.00027932
3 *67:4 0.0001805
4 *67:5 8.047e-05

*RES
1 *68:Q *67:3 0.506167
2 *67:3 *67:2 0.15375
3 *67:5 *67:2 0.201007
4 *67:5 *67:4 0.0930953
5 *88:B *67:4 0.15375
*END

*D_NET *12 0.00313784

*CONN
*P *12 O *C 36.12 0 *L 0
*I *90:Q O *C 24.92 18.76 *L 0 *D DFCX6

*CAP
1 *12 8.159e-05
2 *12:2 0.00226718
3 *12:4 0.00078907

*RES
1 *12 *12:4 0.0748815
2 *12:4 *12:2 2.07384
3 *12:2 *12:3 3.07215
4 *90:Q *12:3 0.15375
*END

*D_NET *28 0.00341233

*CONN
*I *91:D I *C 30.52 19.88 *L 0.00165 *D DFCX6
*I *76:Q O *C 45.22 18.06 *L 0 *D DFCX1
*I *75:D I *C 40.04 24.92 *L 0.00182 *D DFCX1

*CAP
1 *28:3 0.00015298
2 *28:5 0.00043588
3 *28:6 0.00020194
4 *28:7 0.00048362
5 *28:9 0.00089547
6 *28:11 0.00124244

*RES
1 *28:4 *28:3 0.0960045
2 *28:3 *28:6 0.0960045
3 *76:Q *28:6 0.15375
4 *28:6 *28:5 0.773281
5 *28:11 *28:5 0.24451
6 *28:11 *28:9 0.335774
7 *28:9 *28:10 0.951048
8 *75:D *28:10 0.15375
9 *28:11 *28:7 1.78583
10 *28:7 *28:8 0.292513
11 *91:D *28:8 0.15375
*END

*D_NET *13 0.00352137

*CONN
*P *13 O *C 46.2 0 *L 0
*I *89:Q O *C 37.8 15.96 *L 0 *D DFCX6

*CAP
1 *13 0.00013402
2 *13:2 6.822e-05
3 *13:4 0.00015298
4 *13:6 0.00179163
5 *13:7 0.00055448
6 *13:8 0.00067212
7 *13:9 0.00014792

*RES
1 *13:6 *13:9 2.49612
2 *13:9 *13:7 0.96529
3 *13:8 *13:7 0.773281
4 *13:4 *13:8 0.0960045
5 *13:5 *13:4 0.0960045
6 *89:Q *13:8 0.15375
7 *13:6 *13 0.15375
8 *13:2 *13 0.0404723
9 *13:3 *13:2 0.0404723
*END

*D_NET *29 0.00378451

*CONN
*I *90:D I *C 15.4 19.88 *L 0.00165 *D DFCX6
*I *75:Q O *C 32.34 26.74 *L 0 *D DFCX1
*I *74:D I *C 14.84 14.84 *L 0.00182 *D DFCX1

*CAP
1 *29:3 0.00015298
2 *29:5 0.00040586
3 *29:6 8.069e-05
4 *29:7 0.0002659
5 *29:8 0.00075215
6 *29:9 0.0001297
7 *29:10 0.00020855
8 *29:11 0.00061266
9 *29:12 0.00091193
10 *29:13 0.00026409

*RES
1 *29:4 *29:3 0.0960045
2 *29:3 *29:10 0.0960045
3 *75:Q *29:10 0.15375
4 *29:13 *29:10 0.441764
5 *29:13 *29:14 0.0811884
6 *29:12 *29:14 1.53316
7 *29:11 *29:12 0.0930953
8 *29:11 *29:9 1.2098
9 *29:8 *29:9 1.15205
10 *29:7 *29:8 0.381109
11 *29:6 *29:7 0.0930953
12 *29:5 *29:6 0.484522
13 *74:D *29:5 0.15375
14 *90:D *29:8 0.15375
*END

*D_NET *14 0.0271913

*CONN
*I *106:Q O *C 42.7 55.3 *L 0 *D CLKBUFX2
*I *100:SN I *C 22.21 25.47 *L 0.00368 *D DFPX3
*I *99:SN I *C 21.09 55.71 *L 0.00368 *D DFPX3
*I *98:RN I *C 52.92 38.36 *L 0.0041 *D DFCX6
*I *97:RN I *C 52.92 36.68 *L 0.0041 *D DFCX6
*I *96:RN I *C 52.92 48.44 *L 0.0041 *D DFCX6
*I *95:RN I *C 65.8 16.52 *L 0.0041 *D DFCX6
*I *94:RN I *C 65.8 18.2 *L 0.0041 *D DFCX6
*I *93:RN I *C 51.24 28.28 *L 0.0041 *D DFCX6
*I *92:RN I *C 50.68 16.52 *L 0.0041 *D DFCX6
*I *91:RN I *C 37.8 18.2 *L 0.0041 *D DFCX6
*I *90:RN I *C 22.68 18.2 *L 0.0041 *D DFCX6
*I *89:RN I *C 35.56 16.52 *L 0.0041 *D DFCX6
*I *86:RN I *C 21.7 35.7 *L 0.00427 *D DFCX1
*I *85:RN I *C 21.7 45.78 *L 0.00427 *D DFCX1
*I *84:RN I *C 33.18 49.42 *L 0.00427 *D DFCX1
*I *83:RN I *C 37.94 45.78 *L 0.00427 *D DFCX1
*I *82:RN I *C 66.5 55.86 *L 0.00427 *D DFCX1
*I *81:RN I *C 67.06 49.42 *L 0.00427 *D DFCX1
*I *80:RN I *C 66.5 45.78 *L 0.00427 *D DFCX1
*I *79:RN I *C 67.06 39.34 *L 0.00427 *D DFCX1
*I *78:RN I *C 67.06 35.7 *L 0.00427 *D DFCX1
*I *77:RN I *C 65.38 29.26 *L 0.00427 *D DFCX1
*I *76:RN I *C 46.06 19.18 *L 0.00427 *D DFCX1
*I *75:RN I *C 33.18 25.62 *L 0.00427 *D DFCX1
*I *74:RN I *C 21.7 15.54 *L 0.00427 *D DFCX1

*CAP
1 *106:Q 0.0009297
2 *89:RN 0.00019709
3 *14:26 0.00067047
4 *14:27 0.0005268
5 *14:28 0.00088407
6 *14:29 0.00025971
7 *14:30 0.00101994
8 *14:31 0.00097344
9 *14:32 0.00015298
10 *14:34 5.131e-05
11 *14:35 0.00015202
12 *14:36 0.0001099
13 *14:37 4.437e-05
14 *14:40 7.359e-05
15 *14:41 0.00050367
16 *14:42 0.00032152
17 *14:44 8.085e-05
18 *14:46 0.00012582
19 *14:47 8.917e-05
20 *14:48 0.0006104
21 *14:49 0.00074431
22 *14:50 0.0003473
23 *14:52 0.00024798
24 *14:53 0.00111577
25 *14:54 9.99e-05
26 *14:55 5.59e-05
27 *14:56 0.00013384
28 *14:57 0.0001871
29 *14:58 0.0008256
30 *14:59 0.0006629
31 *14:60 9.433e-05
32 *14:62 0.00074642
33 *14:63 0.00042545
34 *14:64 0.00025691
35 *14:65 0.00030387
36 *14:66 0.00095951
37 *14:67 0.00055881
38 *14:68 0.00014464
39 *14:69 0.00027032
40 *14:70 0.00078727
41 *14:71 0.00059621
42 *14:72 0.00055291
43 *14:73 0.00014066
44 *14:74 0.00072205
45 *14:75 0.00095453
46 *14:76 0.00040666
47 *14:78 0.00028162
48 *14:79 0.00108269
49 *14:80 0.00127376
50 *14:27 *4:6 0.00024632
51 *14:27 *5:6 0.00033904
52 *14:27 *6:8 0.00019888
53 *14:29 *8:3 0.00025557
54 *14:49 *15:19 0.00164066
55 *14:28 *23:8 0.00026845
56 *14:30 *24:12 0.00022568
57 *14:31 *27:5 0.00083349
58 *14:26 *103:B 0.00042715

*RES
1 *14:33 *14:32 0.0960045
2 *14:32 *14:57 0.0960045
3 *75:RN *14:57 0.3075
4 *14:57 *14:75 0.15375
5 *14:75 *14:29 0.864041
6 *14:29 *14:36 0.619531
7 *14:76 *14:36 0.628528
8 *14:40 *14:76 0.15375
9 *14:40 *14:45 0.0915057
10 *14:27 *14:45 1.04705
11 *76:RN *14:27 0.3075
12 *14:76 *14:30 0.960045
13 *14:50 *14:30 0.15375
14 *14:31 *14:50 1.54507
15 *92:RN *14:31 0.15375
16 *14:50 *14:54 0.48902
17 *14:54 *14:58 0.0930953
18 *93:RN *14:58 0.15375
19 *14:58 *14:35 1.14465
20 *14:52 *14:35 0.292512
21 *14:52 *14:56 0.279151
22 *97:RN *14:56 0.15375
23 *14:56 *14:28 0.297011
24 *98:RN *14:28 0.15375
25 *14:28 *14:62 1.72808
26 *96:RN *14:62 0.15375
27 *14:62 *14:38 1.3058
28 *106:Q *14:38 3.06661
29 *14:30 *14:60 2.64537
30 *14:60 *14:69 0.0900511
31 *14:67 *14:69 1.24806
32 *14:64 *14:67 0.292513
33 *95:RN *14:64 0.15375
34 *94:RN *14:67 0.15375
35 *14:69 *14:72 0.672032
36 *77:RN *14:72 0.3075
37 *14:72 *14:37 0.955547
38 *14:68 *14:37 0.100503
39 *14:68 *14:71 0.1891
40 *14:71 *14:74 0.666546
41 *14:74 *14:78 1.05314
42 *80:RN *14:78 0.3075
43 *14:78 *14:79 0.672032
44 *14:79 *14:84 0.0960045
45 *81:RN *14:84 0.3075
46 *14:79 *14:81 1.04414
47 *82:RN *14:81 0.3075
48 *14:74 *14:83 0.0960045
49 *79:RN *14:83 0.3075
50 *14:71 *14:82 0.0960045
51 *78:RN *14:82 0.3075
52 *14:29 *14:66 1.3989
53 *14:63 *14:66 0.1891
54 *14:63 *14:39 0.450761
55 *89:RN *14:39 0.33547
56 *91:RN *14:66 0.15375
57 *14:75 *14:53 1.88183
58 *14:49 *14:53 1.24806
59 *14:47 *14:49 0.0930953
60 *14:44 *14:47 0.0930953
61 *14:42 *14:44 0.384018
62 *74:RN *14:42 0.3075
63 *90:RN *14:49 0.15375
64 *100:SN *14:53 0.3075
65 *14:53 *14:34 1.63658
66 *14:55 *14:34 0.100503
67 *14:46 *14:55 0.0960045
68 *86:RN *14:46 0.3075
69 *14:55 *14:59 0.0930953
70 *14:59 *14:61 0.945229
71 *14:48 *14:61 0.201007
72 *14:48 *14:51 0.75322
73 *14:26 *14:51 0.105002
74 *14:26 *14:41 0.957136
75 *14:80 *14:41 2.07384
76 *14:80 *14:73 1.00879
77 *14:70 *14:73 0.957136
78 *14:70 *14:77 0.0960045
79 *83:RN *14:77 0.3075
80 *14:80 *14:65 0.441764
81 *84:RN *14:65 0.3075
82 *14:41 *14:43 0.768036
83 *99:SN *14:43 0.3075
84 *85:RN *14:51 0.3075
*END

*D_NET *30 0.00113864

*CONN
*I *89:D I *C 28.28 14.84 *L 0.00165 *D DFCX6
*I *74:Q O *C 22.54 16.66 *L 0 *D DFCX1

*CAP
1 *30:2 0.0003018
2 *30:3 0.00017362
3 *30:4 0.00015279
4 *30:5 0.00012461
5 *30:6 0.00038582

*RES
1 *30:6 *30:2 0.821283
2 *30:2 *30:3 0.297011
3 *74:Q *30:3 0.15375
4 *30:4 *30:6 0.15375
5 *30:4 *30:5 0.192009
6 *89:D *30:5 0.15375
*END

*D_NET *15 0.0223101

*CONN
*I *101:Q O *C 33.81 54.74 *L 0 *D CLKBUFX6
*I *100:CP I *C 14.28 24.36 *L 0.00192 *D DFPX3
*I *99:CP I *C 13.16 54.6 *L 0.00192 *D DFPX3
*I *86:CP I *C 12.6 35 *L 0.0019 *D DFCX1
*I *85:CP I *C 12.6 45.08 *L 0.0019 *D DFCX1
*I *84:CP I *C 42.28 50.12 *L 0.0019 *D DFCX1
*I *83:CP I *C 28.84 45.08 *L 0.0019 *D DFCX1
*I *82:CP I *C 57.4 55.16 *L 0.0019 *D DFCX1
*I *81:CP I *C 57.96 50.12 *L 0.0019 *D DFCX1
*I *80:CP I *C 57.4 45.08 *L 0.0019 *D DFCX1
*I *79:CP I *C 57.96 40.04 *L 0.0019 *D DFCX1
*I *78:CP I *C 57.96 35 *L 0.0019 *D DFCX1
*I *77:CP I *C 56.28 29.96 *L 0.0019 *D DFCX1
*I *76:CP I *C 55.16 19.88 *L 0.0019 *D DFCX1
*I *75:CP I *C 42.28 24.92 *L 0.0019 *D DFCX1
*I *74:CP I *C 12.6 14.84 *L 0.0019 *D DFCX1

*CAP
1 *15:16 0.00155297
2 *15:17 0.00044862
3 *15:18 0.00047127
4 *15:19 0.00311639
5 *15:20 0.0010527
6 *15:21 0.00069786
7 *15:22 0.00015298
8 *15:24 0.00015146
9 *15:26 0.00015298
10 *15:29 0.00020653
11 *15:30 0.00015296
12 *15:31 0.0001173
13 *15:32 0.00104845
14 *15:33 0.00039006
15 *15:34 0.00081067
16 *15:35 0.00011992
17 *15:36 4.219e-05
18 *15:37 3.63e-05
19 *15:38 0.00010011
20 *15:39 2.281e-05
21 *15:40 0.00089407
22 *15:41 6.618e-05
23 *15:42 8.042e-05
24 *15:43 0.00010315
25 *15:44 0.00018974
26 *15:45 0.00019023
27 *15:46 0.00066618
28 *15:47 0.00014548
29 *15:48 0.00019479
30 *15:49 0.00053868
31 *15:50 0.00044179
32 *15:51 0.00037049
33 *15:52 0.00079464
34 *15:53 0.00124414
35 *15:55 0.00013243
36 *15:57 0.0007877
37 *15:17 *5:6 0.00039874
38 *15:17 *6:8 0.0001749