*SPEF "IEEE 1481-1998"
*DESIGN "fet_dec"
*DATE "Tue Aug 29 14:44:46 2017"
*VENDOR "Cadence Design Systems, Inc."
*PROGRAM "Innovus"
*VERSION "15.28-s017_1"
*DESIGN_FLOW "PIN_CAP NONE" "NAME_SCOPE LOCAL"
*DIVIDER /
*DELIMITER :
*BUS_DELIMITER []
*T_UNIT 1 NS
*C_UNIT 1 PF
*R_UNIT 1 OHM
*L_UNIT 1 HENRY

// MMMC spef file for corner 'ams_rc_corner_maxCaR'

*NAME_MAP

*1 CTS_160
*2 CTS_159
*3 CTS_158
*4 CTS_157
*5 CTS_156
*6 CTS_155
*7 CTS_154
*8 CTS_153
*9 CTS_152
*10 CTS_151
*11 CTS_150
*12 CTS_149
*13 CTS_148
*14 CTS_147
*15 CTS_146
*16 CTS_145
*17 sll_18_12/CTS_135
*18 CTS_144
*19 CTS_143
*20 CTS_142
*21 CTS_141
*22 CTS_140
*23 CTS_139
*24 CTS_138
*25 CTS_137
*26 CTS_136
*27 CTS_135
*28 CTS_134
*29 CTS_133
*30 CTS_132
*31 CTS_131
*32 CTS_130
*33 CTS_129
*34 in[4]
*35 in[3]
*36 in[2]
*37 in[1]
*38 in[0]
*39 out[31]
*40 out[30]
*41 out[29]
*42 out[28]
*43 out[27]
*44 out[26]
*45 out[25]
*46 out[24]
*47 out[23]
*48 out[22]
*49 out[21]
*50 out[20]
*51 out[19]
*52 out[18]
*53 out[17]
*54 out[16]
*55 out[15]
*56 out[14]
*57 out[13]
*58 out[12]
*59 out[11]
*60 out[10]
*61 out[9]
*62 out[8]
*63 out[7]
*64 out[6]
*65 out[5]
*66 out[4]
*67 out[3]
*68 out[2]
*69 out[1]
*70 out[0]
*71 logic_1_1_net
*72 sll_18_12/n_0
*73 sll_18_12/n_1
*74 sll_18_12/n_2
*75 sll_18_12/n_3
*76 sll_18_12/n_4
*77 sll_18_12/n_5
*78 sll_18_12/n_7
*79 sll_18_12/n_8
*80 sll_18_12/n_9
*81 sll_18_12/n_10
*82 sll_18_12/n_11
*83 sll_18_12/n_12
*84 sll_18_12/n_13
*85 sll_18_12/n_15
*86 sll_18_12/n_17
*87 sll_18_12/n_29
*88 sll_18_12/n_31
*89 sll_18_12/n_34
*90 sll_18_12/n_36
*91 CTS_ccl_BUF_in_0__G0_L3_16
*92 CTS_ccl_BUF_in_0__G0_L3_15
*93 CTS_ccl_BUF_in_0__G0_L3_14
*94 CTS_ccl_BUF_in_0__G0_L3_13
*95 CTS_ccl_BUF_in_0__G0_L3_12
*96 CTS_ccl_BUF_in_0__G0_L3_11
*97 CTS_ccl_BUF_in_0__G0_L3_10
*98 CTS_ccl_BUF_in_0__G0_L3_9
*99 CTS_ccl_BUF_in_0__G0_L3_8
*100 CTS_ccl_BUF_in_0__G0_L3_7
*101 CTS_ccl_BUF_in_0__G0_L3_6
*102 CTS_ccl_BUF_in_0__G0_L3_5
*103 CTS_ccl_BUF_in_0__G0_L3_4
*104 CTS_ccl_BUF_in_0__G0_L3_3
*105 CTS_ccl_BUF_in_0__G0_L3_2
*106 CTS_ccl_BUF_in_0__G0_L3_1
*107 CTS_ccl_BUF_in_0__G0_L4_16
*108 CTS_ccl_BUF_in_0__G0_L4_15
*109 CTS_ccl_BUF_in_0__G0_L4_14
*110 CTS_ccl_BUF_in_0__G0_L4_13
*111 CTS_ccl_BUF_in_0__G0_L4_12
*112 CTS_ccl_BUF_in_0__G0_L4_11
*113 CTS_ccl_BUF_in_0__G0_L4_10
*114 CTS_ccl_BUF_in_0__G0_L4_9
*115 CTS_ccl_BUF_in_0__G0_L4_8
*116 CTS_ccl_BUF_in_0__G0_L4_7
*117 CTS_ccl_BUF_in_0__G0_L4_6
*118 CTS_ccl_BUF_in_0__G0_L4_5
*119 CTS_ccl_BUF_in_0__G0_L4_4
*120 CTS_ccl_BUF_in_0__G0_L4_3
*121 CTS_ccl_BUF_in_0__G0_L4_2
*122 CTS_ccl_BUF_in_0__G0_L4_1
*123 tie_1_cell
*124 sll_18_12/CTS_cex_INV_in_0__G0_L1_1
*125 sll_18_12/g200
*126 sll_18_12/g202
*127 sll_18_12/g348
*128 sll_18_12/g349
*129 sll_18_12/g350
*130 sll_18_12/g351
*131 sll_18_12/g191
*132 sll_18_12/g192
*133 sll_18_12/g193
*134 sll_18_12/g194
*135 sll_18_12/g195
*136 sll_18_12/g196
*137 sll_18_12/g197
*138 sll_18_12/g198
*139 sll_18_12/g316
*140 sll_18_12/g317
*141 sll_18_12/g318
*142 sll_18_12/g319
*143 sll_18_12/g320
*144 sll_18_12/g321
*145 sll_18_12/g322
*146 sll_18_12/g323
*147 sll_18_12/g324
*148 sll_18_12/g325
*149 sll_18_12/g326
*150 sll_18_12/g327
*151 sll_18_12/g328
*152 sll_18_12/g329
*153 sll_18_12/g330
*154 sll_18_12/g331
*155 sll_18_12/g332
*156 sll_18_12/g333
*157 sll_18_12/g334
*158 sll_18_12/g335
*159 sll_18_12/g336
*160 sll_18_12/g337
*161 sll_18_12/g338
*162 sll_18_12/g339
*163 sll_18_12/g340
*164 sll_18_12/g341
*165 sll_18_12/g342
*166 sll_18_12/g343
*167 sll_18_12/g344
*168 sll_18_12/g345
*169 sll_18_12/g346
*170 sll_18_12/g347
*171 sll_18_12/g123
*172 sll_18_12/g203
*173 sll_18_12/g204
*174 sll_18_12/g199
*175 sll_18_12/g201


*PORTS

*34 I *C 50.12 59.92
*35 I *C 49 59.92
*36 I *C 47.88 59.92
*37 I *C 46.76 59.92
*38 I *C 45.64 59.92
*39 O *C 31.08 0
*40 O *C 32.2 0
*41 O *C 33.32 0
*42 O *C 34.44 0
*43 O *C 35.56 0
*44 O *C 36.68 0
*45 O *C 37.8 0
*46 O *C 38.92 0
*47 O *C 40.04 0
*48 O *C 41.16 0
*49 O *C 42.28 0
*50 O *C 43.4 0
*51 O *C 44.52 0
*52 O *C 45.64 0
*53 O *C 46.76 0
*54 O *C 47.88 0
*55 O *C 49 0
*56 O *C 50.12 0
*57 O *C 51.24 0
*58 O *C 52.36 0
*59 O *C 53.48 0
*60 O *C 54.6 0
*61 O *C 55.72 0
*62 O *C 56.84 0
*63 O *C 57.96 0
*64 O *C 59.08 0
*65 O *C 60.2 0
*66 O *C 61.32 0
*67 O *C 62.44 0
*68 O *C 63.56 0
*69 O *C 64.68 0
*70 O *C 65.8 0


*D_NET *1 0.00920018

*CONN
*I *139:Q O *C 19.5 25.96 *L 0 *D NOR2XL
*I *91:A I *C 78.68 35 *L 0.00243 *D CLKBUFX4

*CAP
1 *1:2 0.0020396
2 *1:3 0.0021514
3 *1:4 0.00172928
4 *1:5 0.00042551
5 *1:6 0.00123601
6 *1:7 0.00161838

*RES
1 *1:2 *1:3 11.0114
2 *1:7 *1:3 14.4592
3 *1:5 *1:7 1.46545
4 *139:Q *1:5 5.6525
5 *1:2 *1:4 11.0121
6 *1:6 *1:4 15.6109
7 *1:6 *1:8 5.37779
8 *91:A *1:8 5.6525
*END

*D_NET *17 0.00661735

*CONN
*I *128:A I *C 24.36 45.08 *L 0.00148 *D NAND2XL
*I *127:A I *C 34.44 35 *L 0.00148 *D NAND2XL
*I *124:Q O *C 52.22 34.02 *L 0 *D CLKINVX1

*CAP
1 *17:3 0.00016516
2 *17:5 0.00016756
3 *17:7 0.0003481
4 *17:8 0.00123342
5 *17:9 0.0002299
6 *17:10 0.00139533
7 *17:11 0.00016336
8 *17:12 0.00033226
9 *17:13 0.00258226

*RES
1 *17:6 *17:5 0.384128
2 *17:5 *17:8 0.384128
3 *128:A *17:8 5.6525
4 *17:8 *17:7 11.002
5 *17:11 *17:7 7.28834
6 *17:10 *17:11 6.91431
7 *17:9 *17:10 0.697192
8 *17:13 *17:9 18.0157
9 *17:12 *17:13 5.6525
10 *124:Q *17:12 5.6525
11 *17:3 *17:12 0.384128
12 *17:4 *17:3 0.384128
13 *127:A *17:10 5.6525
*END

*D_NET *33 0.00880638

*CONN
*I *169:Q O *C 64.3 15.88 *L 0 *D NOR2XL
*I *122:A I *C 13.16 35 *L 0.00243 *D CLKBUFX4

*CAP
1 *33:2 0.00024725
2 *33:3 0.00385235
3 *33:4 0.00394252
4 *33:6 0.00076426

*RES
1 *122:A *33:5 5.6525
2 *33:4 *33:5 11.1397
3 *33:4 *33:3 18.6846
4 *33:7 *33:3 21.2264
5 *33:6 *33:7 5.6525
6 *33:6 *33:2 8.3414
7 *33:2 *169:Q 1.05257
*END

*D_NET *49 0.00899943

*CONN
*P *49 O *C 42.28 0 *L 0.25
*I *105:Q O *C 71.09 46.5 *L 0 *D CLKBUFX4

*CAP
1 *49 0.00011015
2 *49:2 0.00074941
3 *49:3 0.00260558
4 *49:4 0.00028252
5 *49:5 0.00509436
6 *49:6 0.00015741

*RES
1 *49:3 *49:2 15.081
2 *49:6 *49:2 10.6172
3 *49:4 *49:6 1.15238
4 *105:Q *49:4 5.6525
5 *49:5 *49:3 37.5351
6 *49 *49:5 5.6525
*END

*D_NET *65 0.00579765

*CONN
*P *65 O *C 60.2 0 *L 0.25
*I *106:Q O *C 50.37 26.44 *L 0 *D CLKBUFX3

*CAP
1 *65:2 9.178e-05
2 *65:3 0.00285526
3 *65:4 0.00137319
4 *65:5 0.00012337
5 *65:6 0.00135405

*RES
1 *65:4 *65:6 5.6525
2 *65:6 *65:3 12.2537
3 *65:3 *65:2 17.4894
4 *106:Q *65:2 0.63906
5 *65:5 *65:4 10.5751
6 *65 *65:5 0.455192
*END

*D_NET *82 0.00362946

*CONN
*I *171:Q O *C 32.42 46.42 *L 0 *D INVXL
*I *130:B I *C 34.44 45.64 *L 0.00154 *D NAND2XL
*I *128:B I *C 25.48 45.64 *L 0.00154 *D NAND2XL

*CAP
1 *130:B 0.00012166
2 *128:B 0.00019712
3 *82:5 0.00061041
4 *82:6 0.0008659
5 *82:8 0.00037147
6 *82:9 0.0001355
7 *82:10 0.00012893
8 *82:11 0.00061873
9 *82:12 0.00057974

*RES
1 *82:9 *82:10 0.732724
2 *82:5 *82:10 5.6525
3 *82:7 *82:5 3.38327
4 *82:7 *82:12 5.6525
5 *82:12 *82:4 7.50208
6 *130:B *82:4 1.14279
7 *82:6 *82:5 4.93958
8 *82:6 *82:11 5.6525
9 *82:11 *82:3 7.50208
10 *128:B *82:3 1.69163
11 *82:9 *82:8 0.768256
12 *171:Q *82:8 5.6525
*END

*D_NET *2 0.00677604

*CONN
*I *140:Q O *C 73.26 25.96 *L 0 *D NOR2XL
*I *92:A I *C 24.36 24.92 *L 0.00231 *D CLKBUFX3

*CAP
1 *2:2 0.00016516
2 *2:4 4.189e-05
3 *2:6 0.00207959
4 *2:7 9.572e-05
5 *2:8 0.00200353
6 *2:9 0.00096575
7 *2:10 0.00120447
8 *2:12 0.00021993

*RES
1 *2:5 *2:4 0.0960321
2 *2:4 *2:10 0.0960321
3 *2:10 *2:11 0.384128
4 *92:A *2:11 11.305
5 *2:10 *2:8 11.002
6 *2:6 *2:8 11.0114
7 *2:6 *2:9 11.0121
8 *2:12 *2:9 11.3855
9 *2:7 *2:12 5.6525
10 *2:7 *140:Q 0.63906
11 *2:2 *2:12 0.384128
12 *2:3 *2:2 0.384128
*END

*D_NET *18 0.00262662

*CONN
*I *141:Q O *C 43.22 25.96 *L 0 *D NOR2XL
*I *107:A I *C 46.2 35 *L 0.00231 *D CLKBUFX3

*CAP
1 *18:2 0.0003509
2 *18:3 0.00016546
3 *18:4 0.00148767
4 *18:5 0.00062259

*RES
1 *18:2 *18:3 0.697192
2 *18:5 *18:3 7.60867
3 *18:5 *18:4 11.7985
4 *107:A *18:4 11.305
5 *141:Q *18:2 5.6525
*END

*D_NET *34 0.00808792

*CONN
*P *34 I *C 50.12 59.92 *L 0
*I *172:A I *C 59.08 38.92 *L 0.00134 *D INVXL
*I *137:B I *C 61.88 39.48 *L 0.00154 *D NAND2XL
*I *136:B I *C 51.24 39.48 *L 0.00154 *D NAND2XL
*I *132:B I *C 60.2 39.48 *L 0.00154 *D NAND2XL
*I *131:B I *C 49.56 39.48 *L 0.00154 *D NAND2XL

*CAP
1 *34 0.00011074
2 *131:B 9.916e-05
3 *34:6 0.00016516
4 *34:8 4.129e-05
5 *34:10 4.129e-05
6 *34:12 0.00019453
7 *34:13 0.00011918
8 *34:14 0.00010326
9 *34:15 0.00313639
10 *34:16 0.00016976
11 *34:17 0.00019887
12 *34:18 0.00012785
13 *34:20 5.326e-05
14 *34:22 0.00027387
15 *34:23 0.00029201
16 *34:24 0.0003139
17 *34:25 0.00098056
18 *34:26 0.00080789
19 *34:27 0.00033647
20 *34:28 0.00052248

*RES
1 *34:11 *34:10 0.096032
2 *34:10 *34:22 0.096032
3 *34:14 *34:22 5.6525
4 *34:14 *172:A 0.535146
5 *34:27 *34:22 5.96556
6 *34:25 *34:27 3.00196
7 *34:25 *34:26 0.431912
8 *34:26 *34:18 8.30587
9 *34:17 *34:18 0.362178
10 *34:16 *34:17 0.313064
11 *131:B *34:16 5.6525
12 *34:12 *131:B 1.64653
13 *34:15 *34:12 19.0259
14 *34:15 *34:19 1.59594
15 *34:19 *34 5.6525
16 *34:17 *34:21 0.384128
17 *34:20 *34:21 0.109957
18 *34:13 *34:20 11.305
19 *34:13 *136:B 0.593951
20 *34:27 *34:28 1.15238
21 *34:23 *34:28 5.6525
22 *132:B *34:23 5.6525
23 *34:8 *34:23 0.096032
24 *34:9 *34:8 0.096032
25 *34:28 *34:24 6.84042
26 *137:B *34:24 5.6525
27 *34:6 *34:24 0.384128
28 *34:7 *34:6 0.384128
*END

*D_NET *50 0.00606684

*CONN
*P *50 O *C 43.4 0 *L 0.25
*I *115:Q O *C 76.69 16.36 *L 0 *D CLKBUFX3

*CAP
1 *50:2 0.00125992
2 *50:3 0.00036574
3 *50:4 0.00086045
4 *50:6 0.00011204
5 *50:7 0.00186329
6 *50:8 0.0006536
7 *50:9 0.0009518

*RES
1 *50:4 *50:5 4.22541
2 *115:Q *50:5 5.6525
3 *50:4 *50:2 14.4585
4 *50:8 *50:2 3.55716
5 *50:8 *50:9 5.6525
6 *50:9 *50:7 10.5751
7 *50:7 *50:3 16.095
8 *50:6 *50:3 6.34969
9 *50 *50:6 0.455192
*END

*D_NET *66 0.0055215

*CONN
*P *66 O *C 61.32 0 *L 0.25
*I *116:Q O *C 80.61 26.44 *L 0 *D CLKBUFX3

*CAP
1 *66 0.00014909
2 *66:2 0.00194214
3 *66:3 0.00045066
4 *66:4 0.00066399
5 *66:5 0.00231562

*RES
1 *66:3 *66:2 2.02065
2 *66:4 *66:2 17.1474
3 *66:4 *66:6 2.6889
4 *116:Q *66:6 5.6525
5 *66:5 *66:3 19.8652
6 *66 *66:5 5.6525
*END

*D_NET *83 0.0155397

*CONN
*I *162:B I *C 28.84 15.96 *L 0.00142 *D NOR2XL
*I *158:B I *C 28.28 46.2 *L 0.00142 *D NOR2XL
*I *155:B I *C 55.72 26.04 *L 0.00142 *D NOR2XL
*I *139:B I *C 19.88 26.04 *L 0.00142 *D NOR2XL
*I *131:Q O *C 49.42 39.9 *L 0 *D NAND2XL

*CAP
1 *155:B 0.00014807
2 *139:B 0.00012785
3 *83:5 0.00245824
4 *83:6 0.00064436
5 *83:9 0.0014268
6 *83:10 2.956e-05
7 *83:11 0.00016093
8 *83:12 0.00020858
9 *83:13 0.00060846
10 *83:14 0.00041003
11 *83:16 0.00020188
12 *83:18 0.00025087
13 *83:20 0.00043441
14 *83:21 0.00133075
15 *83:22 0.00146708
16 *83:23 0.00063287
17 *83:24 0.00120431
18 *83:25 0.00042074
19 *83:26 0.00059791
20 *83:27 0.00020789
21 *83:28 9.104e-05
22 *83:29 0.0016509
23 *83:31 0.00082614

*RES
1 *83:5 *83:17 18.6606
2 *83:24 *83:17 10.191
3 *83:19 *83:24 5.6525
4 *155:B *83:19 1.14279
5 *83:5 *83:8 0.605457
6 *83:8 *83:6 5.53446
7 *83:18 *83:6 2.13253
8 *83:16 *83:18 0.53204
9 *83:26 *83:16 6.75018
10 *83:25 *83:26 1.92064
11 *162:B *83:25 5.6525
12 *83:26 *83:27 3.00196
13 *83:27 *83:28 0.697192
14 *83:28 *83:29 0.372488
15 *83:29 *83:30 7.34622
16 *83:22 *83:30 0.697192
17 *83:22 *83:23 7.28679
18 *158:B *83:23 5.6525
19 *83:23 *83:11 8.3414
20 *83:11 *83:15 1.09768
21 *83:14 *83:15 0.331036
22 *83:14 *83:9 2.60795
23 *83:10 *83:9 11.5717
24 *83:10 *83:12 0.25762
25 *83:21 *83:12 6.8236
26 *83:21 *83:13 11.3434
27 *83:13 *131:Q 4.98468
28 *83:27 *83:31 5.6525
29 *83:31 *83:20 11.1014
30 *83:20 *83:7 7.11795
31 *139:B *83:7 1.14279
*END

*D_NET *3 0.00811815

*CONN
*I *148:Q O *C 17.26 36.04 *L 0 *D NOR2XL
*I *93:A I *C 57.96 14.84 *L 0.00231 *D CLKBUFX3

*CAP
1 *3:2 0.00327241
2 *3:3 0.00212017
3 *3:4 0.00126719
4 *3:5 0.0001813
5 *3:6 0.00015098
6 *3:7 0.00017092
7 *3:9 0.00095518

*RES
1 *3:8 *3:9 5.6525
2 *3:9 *3:7 10.191
3 *3:7 *3:6 6.42076
4 *3:4 *3:6 6.14605
5 *93:A *3:4 11.305
6 *3:8 *3:2 17.001
7 *3:3 *3:2 15.9957
8 *3:3 *3:5 1.84958
9 *148:Q *3:5 5.6525
*END

*D_NET *19 0.00313696

*CONN
*I *152:Q O *C 57.78 46.12 *L 0 *D NOR2XL
*I *108:A I *C 38.36 45.08 *L 0.00231 *D CLKBUFX3

*CAP
1 *19:2 0.00016516
2 *19:4 0.00036595
3 *19:6 0.00030188
4 *19:7 0.00230397

*RES
1 *19:3 *19:2 0.384128
2 *19:2 *19:6 0.384128
3 *152:Q *19:6 5.6525
4 *19:6 *19:7 5.6525
5 *19:7 *19:4 19.168
6 *19:4 *19:5 0.768256
7 *108:A *19:5 11.305
*END

*D_NET *35 0.0105352

*CONN
*P *35 I *C 49 59.92 *L 0
*I *171:A I *C 32.76 46.2 *L 0.00134 *D INVXL
*I *129:B I *C 46.76 25.48 *L 0.00154 *D NAND2XL
*I *127:B I *C 35.56 35.56 *L 0.00154 *D NAND2XL

*CAP
1 *35 0.00015138
2 *129:B 0.00020001
3 *127:B 0.00022507
4 *35:4 4.338e-05
5 *35:6 0.00065937
6 *35:7 0.00122074
7 *35:8 0.00136912
8 *35:9 0.00011462
9 *35:10 0.00011049
10 *35:13 0.00196097
11 *35:14 0.00095303
12 *35:15 0.00032583
13 *35:16 6.983e-05
14 *35:17 0.00313135

*RES
1 *35:12 *35:7 3.84128
2 *35:6 *35:7 5.6525
3 *35:10 *35:6 4.34562
4 *35:13 *35:10 9.18072
5 *35:9 *35:13 5.6525
6 *127:B *35:9 1.60142
7 *35:13 *35:8 9.42272
8 *35:14 *35:8 16.7195
9 *35:15 *35:14 6.34969
10 *35:4 *35:15 0.0937454
11 *35:5 *35:4 0.0937454
12 *35:15 *35:16 0.455192
13 *35:17 *35:16 24.8589
14 *35 *35:17 5.6525
15 *35:14 *35:11 8.65446
16 *129:B *35:11 1.69163
17 *171:A *35:12 5.6525
*END

*D_NET *51 0.0104782

*CONN
*P *51 O *C 44.52 0 *L 0.25
*I *100:Q O *C 80.05 46.5 *L 0 *D CLKBUFX4

*CAP
1 *51 0.00015478
2 *51:2 0.00203162
3 *51:3 0.00127628
4 *51:4 0.00085435
5 *51:7 0.00159569
6 *51:8 0.00095342
7 *51:9 0.00361203

*RES
1 *51:7 *51:2 6.63019
2 *51:4 *51:2 16.7633
3 *51:4 *51:6 3.84128
4 *100:Q *51:6 5.6525
5 *51:7 *51:9 5.6525
6 *51:9 *51:5 26.7085
7 *51:3 *51:5 6.98537
8 *51:8 *51:3 11.4144
9 *51 *51:8 5.6525
*END

*D_NET *67 0.00435088

*CONN
*P *67 O *C 62.44 0 *L 0.25
*I *99:Q O *C 49.81 16.36 *L 0 *D CLKBUFX3

*CAP
1 *67:2 0.00144424
2 *67:4 0.00117533
3 *67:5 0.00013577
4 *67:6 0.00159554

*RES
1 *67:2 *67:3 5.76192
2 *99:Q *67:3 5.6525
3 *67:6 *67:2 13.7903
4 *67:4 *67:6 5.6525
5 *67:5 *67:4 9.80685
6 *67:5 *67 0.455192
*END

*D_NET *84 0.0115483

*CONN
*I *168:B I *C 69.16 36.12 *L 0.00142 *D NOR2XL
*I *159:B I *C 40.6 36.12 *L 0.00142 *D NOR2XL
*I *142:B I *C 56.28 36.12 *L 0.00142 *D NOR2XL
*I *140:B I *C 73.64 26.04 *L 0.00142 *D NOR2XL
*I *137:Q O *C 61.74 39.9 *L 0 *D NAND2XL

*CAP
1 *137:Q 0.00027234
2 *84:5 4.129e-05
3 *84:7 0.00019469
4 *84:8 8.064e-05
5 *84:9 0.00068331
6 *84:11 0.00171615
7 *84:13 8.623e-05
8 *84:14 0.00111506
9 *84:15 0.00030029
10 *84:16 0.00097388
11 *84:17 0.00182986
12 *84:20 0.00027384
13 *84:21 0.0005414
14 *84:22 0.00092309
15 *84:23 0.00093595
16 *84:24 0.00107288
17 *84:25 0.00050738

*RES
1 *84:6 *84:5 0.096032
2 *84:5 *84:20 0.096032
3 *140:B *84:20 5.6525
4 *84:20 *84:21 5.6525
5 *84:21 *84:17 8.79659
6 *84:17 *84:18 6.9143
7 *84:14 *84:18 0.443552
8 *84:8 *84:14 5.6525
9 *84:8 *168:B 0.63906
10 *84:14 *84:10 9.03859
11 *84:10 *84:9 4.29861
12 *137:Q *84:9 1.73865
13 *137:Q *84:26 5.6525
14 *84:25 *84:26 1.21181
15 *84:24 *84:25 0.372488
16 *84:24 *84:19 9.42272
17 *84:16 *84:19 5.57864
18 *84:15 *84:16 1.62972
19 *84:13 *84:15 0.53204
20 *84:11 *84:13 12.5331
21 *84:11 *84:12 0.605457
22 *84:7 *84:12 1.09768
23 *84:22 *84:7 8.3414
24 *159:B *84:22 5.6525
25 *84:23 *84:16 8.3414
26 *142:B *84:23 5.6525
*END

*D_NET *4 0.00400937

*CONN
*I *154:Q O *C 55.34 15.88 *L 0 *D NOR2XL
*I *94:A I *C 66.92 24.92 *L 0.00231 *D CLKBUFX3

*CAP
1 *154:Q 0.00013909
2 *4:2 0.0001718
3 *4:4 0.00016516
4 *4:6 0.00030057
5 *4:8 0.00130192
6 *4:9 0.00153935
7 *4:11 0.00017461
8 *4:12 0.00021687

*RES
1 *4:10 *4:6 1.89169
2 *4:8 *4:6 11.1303
3 *4:4 *4:8 0.384128
4 *4:5 *4:4 0.384128
5 *4:7 *4:8 5.6525
6 *154:Q *4:7 1.14279
7 *4:12 *4:10 6.42076
8 *4:11 *4:12 5.6525
9 *4:2 *4:11 0.374264
10 *4:3 *4:2 0.374264
11 *4:11 *4:9 12.1827
12 *94:A *4:9 11.305
*END

*D_NET *20 0.00391647

*CONN
*I *156:Q O *C 61.14 36.04 *L 0 *D NOR2XL
*I *109:A I *C 54.04 45.08 *L 0.00231 *D CLKBUFX3

*CAP
1 *20:2 0.0001718
2 *20:4 0.00016516
3 *20:6 0.00098881
4 *20:8 0.00029562
5 *20:9 0.00030749
6 *20:10 0.00113019
7 *20:11 0.0008574

*RES
1 *20:5 *20:4 0.384128
2 *20:4 *20:8 0.384128
3 *156:Q *20:8 5.6525
4 *20:8 *20:9 11.305
5 *20:11 *20:9 9.80685
6 *20:10 *20:11 5.6525
7 *20:10 *20:6 10.6817
8 *20:6 *20:7 2.6889
9 *109:A *20:7 11.305
10 *20:2 *20:9 0.374264
11 *20:3 *20:2 0.374264
*END

*D_NET *36 0.00659917

*CONN
*P *36 I *C 47.88 59.92 *L 0
*I *175:B I *C 73.64 46.2 *L 0.00142 *D NOR2XL
*I *173:A I *C 72.52 46.2 *L 0.00134 *D INVXL
*I *126:A I *C 52.92 39.48 *L 0.00219 *D AND2X3

*CAP
1 *36:4 0.00095088
2 *36:6 0.00021587
3 *36:7 0.0004871
4 *36:8 0.00055668
5 *36:9 0.00074467
6 *36:11 0.00011814
7 *36:12 0.00147748
8 *36:13 0.00120139
9 *36:14 0.00012937
10 *36:15 0.00071759

*RES
1 *36:9 *36:4 6.08428
2 *36:5 *36:4 8.18561
3 *36:8 *36:5 7.5615
4 *173:A *36:8 5.6525
5 *36:8 *36:11 0.697192
6 *175:B *36:11 5.6525
7 *36:9 *36:10 0.331036
8 *36:7 *36:10 3.82509
9 *36:6 *36:7 0.25762
10 *36:13 *36:6 6.75018
11 *36:12 *36:13 6.53018
12 *126:A *36:12 5.6525
13 *36:13 *36:14 6.07499
14 *36:15 *36:14 9.10965
15 *36:15 *36 0.792148
*END

*D_NET *52 0.00678371

*CONN
*P *52 O *C 45.64 0 *L 0.25
*I *118:Q O *C 16.21 26.44 *L 0 *D CLKBUFX3

*CAP
1 *52:2 0.0016288
2 *52:3 6.571e-05
3 *52:4 0.00118781
4 *52:5 0.0024023
5 *52:6 0.00013604
6 *52:8 0.00136305

*RES
1 *52:4 *52:7 5.6525
2 *52:7 *52:2 8.93427
3 *52:8 *52:2 10.3432
4 *52:5 *52:8 5.6525
5 *52:5 *52:3 18.2577
6 *118:Q *52:3 0.63906
7 *52:6 *52:4 9.80684
8 *52:6 *52 0.455192
*END

*D_NET *68 0.00733031

*CONN
*P *68 O *C 63.56 0 *L 0.25
*I *117:Q O *C 25.17 16.36 *L 0 *D CLKBUFX3

*CAP
1 *117:Q 0.0002263
2 *68:2 0.00391939
3 *68:4 0.00102843
4 *68:5 0.00149368
5 *68:6 0.00013779
6 *68:8 0.00052472

*RES
1 *68:4 *68:7 5.6525
2 *68:7 *68:2 21.2264
3 *68:8 *68:2 3.42889
4 *68:5 *68:8 5.6525
5 *68:5 *68:3 12.1116
6 *117:Q *68:3 1.69163
7 *68:6 *68:4 9.03859
8 *68:6 *68 0.455192
*END

*D_NET *85 0.011817

*CONN
*I *165:B I *C 72.52 36.12 *L 0.00142 *D NOR2XL
*I *149:B I *C 38.36 36.12 *L 0.00142 *D NOR2XL
*I *145:B I *C 26.6 36.12 *L 0.00142 *D NOR2XL
*I *141:B I *C 42.84 26.04 *L 0.00142 *D NOR2XL
*I *136:Q O *C 51.1 39.9 *L 0 *D NAND2XL

*CAP
1 *145:B 0.00043676
2 *85:5 4.129e-05
3 *85:7 0.00032695
4 *85:8 0.00062959
5 *85:9 0.00142216
6 *85:12 0.0004286
7 *85:13 0.00064626
8 *85:14 0.00010422
9 *85:15 0.00027333
10 *85:16 0.0001374
11 *85:17 0.00020563
12 *85:18 0.00051567
13 *85:20 0.00202826
14 *85:21 0.00018545
15 *85:22 0.00017062
16 *85:23 0.00011898
17 *85:24 0.00414587

*RES
1 *85:6 *85:5 0.096032
2 *85:5 *85:22 0.096032
3 *85:22 *85:23 0.0740293
4 *136:Q *85:23 5.6525
5 *85:22 *85:24 5.6525
6 *85:24 *85:9 8.55083
7 *85:14 *85:9 11.3144
8 *85:12 *85:14 1.60758
9 *165:B *85:12 5.6525
10 *85:24 *85:21 14.8716
11 *85:20 *85:21 1.53651
12 *149:B *85:20 5.6525
13 *85:20 *85:13 12.1116
14 *85:13 *85:19 3.84189
15 *85:17 *85:19 0.605457
16 *85:17 *141:B 0.503733
17 *85:21 *85:7 6.75018
18 *85:7 *85:11 0.605457
19 *85:11 *85:8 4.98561
20 *85:16 *85:8 1.03484
21 *85:15 *85:16 0.53204
22 *85:18 *85:15 6.75018
23 *85:18 *85:10 7.11795
24 *145:B *85:10 3.33816
*END

*D_NET *5 0.00777935

*CONN
*I *157:Q O *C 37.42 15.88 *L 0 *D NOR2XL
*I *95:A I *C 74.76 35 *L 0.00231 *D CLKBUFX3

*CAP
1 *157:Q 0.00014943
2 *5:2 0.00112087
3 *5:4 0.00301273
4 *5:5 0.00036982
5 *5:7 0.0031265

*RES
1 *157:Q *5:3 1.14279
2 *5:5 *5:3 6.34969
3 *5:5 *5:7 5.6525
4 *5:7 *5:2 17.7699
5 *5:4 *5:2 12.922
6 *5:4 *5:6 14.981
7 *95:A *5:6 11.305
*END

*D_NET *21 0.00338837

*CONN
*I *158:Q O *C 28.66 46.12 *L 0 *D NOR2XL
*I *110:A I *C 50.12 45.08 *L 0.00231 *D CLKBUFX3

*CAP
1 *21:2 0.00196781
2 *21:3 0.00037502
3 *21:4 0.0002298
4 *21:5 0.00063737
5 *21:6 0.00017837

*RES
1 *21:4 *21:6 0.768256
2 *21:6 *21:2 18.0439
3 *21:5 *21:2 7.92901
4 *21:3 *21:5 0.697192
5 *158:Q *21:3 5.6525
6 *110:A *21:4 11.305
*END

*D_NET *37 0.0100077

*CONN
*P *37 I *C 46.76 59.92 *L 0
*I *175:A I *C 74.46 45.93 *L 0.0012 *D NOR2XL
*I *174:B I *C 70.28 38.92 *L 0.00142 *D NOR2XL
*I *126:B I *C 54.02 40.16 *L 0.00239 *D AND2X3
*I *125:A I *C 71.96 39.48 *L 0.00219 *D AND2X3

*CAP
1 *37:5 0.00016516
2 *37:7 0.00016516
3 *37:9 0.00072054
4 *37:10 3.12e-05
5 *37:11 0.00115822
6 *37:12 0.0001028
7 *37:13 0.00255766
8 *37:14 0.00016355
9 *37:15 0.00110573
10 *37:16 0.00108458
11 *37:17 0.00010972
12 *37:18 0.00012116
13 *37:19 0.00047108
14 *37:20 4.398e-05
15 *37:22 0.00057179
16 *37:23 0.00143534

*RES
1 *37:22 *37:17 12.9126
2 *37:12 *37:17 11.305
3 *37:12 *174:B 0.593951
4 *37:9 *174:B 5.53353
5 *37:16 *37:9 14.378
6 *37:20 *37:16 7.22455
7 *37:20 *37:21 0.455192
8 *37:21 *37:10 0.355182
9 *37:13 *37:10 12.2827
10 *37:11 *37:13 3.84128
11 *126:B *37:11 11.305
12 *37:13 *37:14 7.22737
13 *37:15 *37:14 11.0303
14 *37:15 *37 1.5604
15 *37:23 *37:16 18.2904
16 *37:23 *37:19 12.9126
17 *175:A *37:19 5.6525
18 *37:7 *37:17 0.384128
19 *37:8 *37:7 0.384128
20 *37:18 *37:22 11.305
21 *125:A *37:18 11.305
22 *37:5 *37:18 0.384128
23 *37:6 *37:5 0.384128
*END

*D_NET *53 0.00824483

*CONN
*P *53 O *C 46.76 0 *L 0.25
*I *102:Q O *C 66.61 36.52 *L 0 *D CLKBUFX3

*CAP
1 *102:Q 0.00022397
2 *53:2 0.00016882
3 *53:3 0.00061613
4 *53:4 0.00239146
5 *53:5 0.0001507
6 *53:6 0.00145002
7 *53:7 0.00324373

*RES
1 *102:Q *53:5 1.60142
2 *53:6 *53:5 9.87791
3 *53:6 *53:8 5.6525
4 *53:8 *53:3 3.04408
5 *53:4 *53:3 12.3921
6 *53:4 *53:7 5.6525
7 *53:7 *53:2 25.172
8 *53:2 *53 0.41966
*END

*D_NET *69 0.00472074

*CONN
*P *69 O *C 64.68 0 *L 0.25
*I *101:Q O *C 58.77 26.44 *L 0 *D CLKBUFX3

*CAP
1 *69:2 0.00019628
2 *69:3 6.847e-05
3 *69:4 0.00012853
4 *69:5 0.0036316
5 *69:6 0.00010994
6 *69:8 3.915e-05
7 *69:9 0.00054677

*RES
1 *69:8 *69:4 0.348596
2 *69:4 *69:7 5.6525
3 *69:9 *69:7 3.14409
4 *69:5 *69:9 5.6525
5 *69:5 *69:3 21.7148
6 *101:Q *69:3 0.63906
7 *69:8 *69:2 0.348596
8 *69:2 *69:6 5.6525
9 *69 *69:6 0.455192
*END

*D_NET *86 0.0204386

*CONN
*I *153:B I *C 73.64 15.96 *L 0.00142 *D NOR2XL
*I *152:B I *C 57.4 46.2 *L 0.00142 *D NOR2XL
*I *151:B I *C 46.76 15.96 *L 0.00142 *D NOR2XL
*I *148:B I *C 17.64 36.12 *L 0.00142 *D NOR2XL
*I *132:Q O *C 60.06 39.9 *L 0 *D NAND2XL

*CAP
1 *151:B 0.00013451
2 *148:B 0.00025334
3 *86:5 0.00016516
4 *86:7 0.0001718
5 *86:9 3.338e-05
6 *86:10 6.883e-05
7 *86:11 0.00109039
8 *86:12 0.00096263
9 *86:14 0.00025683
10 *86:15 0.00025789
11 *86:18 0.00136815
12 *86:19 0.00019448
13 *86:20 0.00094243
14 *86:21 0.00013443
15 *86:22 0.00068013
16 *86:23 0.00073539
17 *86:24 9.184e-05
18 *86:25 0.00019074
19 *86:26 0.00075698
20 *86:28 0.00161064
21 *86:30 0.00110615
22 *86:33 7.355e-05
23 *86:34 0.00020184
24 *86:35 0.00015343
25 *86:36 0.00019479
26 *86:38 0.00124815
27 *86:39 0.00077425
28 *86:40 0.00101596
29 *86:41 0.00038645
30 *86:42 0.00045872
31 *86:44 0.00019141
32 *86:45 0.00010528
33 *86:46 0.00013159
34 *86:47 0.00013345
35 *86:48 0.0011225
36 *86:49 7.95e-05
37 *86:50 0.00142564
38 *86:51 0.00033318
39 *86:52 8.719e-05
40 *86:53 0.00031337
41 *86:54 0.00080218

*RES
1 *86:8 *86:7 0.374264
2 *86:7 *86:46 0.374264
3 *86:44 *86:46 5.6525
4 *86:35 *86:44 5.6525
5 *86:34 *86:35 1.08088
6 *86:33 *86:34 0.53204
7 *86:28 *86:33 11.9843
8 *86:28 *86:29 0.605457
9 *86:25 *86:29 1.09768
10 *86:39 *86:25 8.27033
11 *86:27 *86:39 5.6525
12 *151:B *86:27 1.14279
13 *86:35 *86:37 1.09768
14 *86:36 *86:37 0.605457
15 *86:36 *86:12 0.59586
16 *86:10 *86:12 8.09539
17 *86:10 *86:15 0.53204
18 *86:15 *86:17 1.1711
19 *86:23 *86:17 8.3414
20 *153:B *86:23 5.6525
21 *86:5 *86:44 0.384128
22 *86:6 *86:5 0.384128
23 *86:50 *86:46 13.7786
24 *86:48 *86:50 0.313064
25 *86:48 *86:49 6.90267
26 *86:49 *86:51 0.372488
27 *86:51 *86:52 1.52487
28 *86:52 *86:54 0.372488
29 *86:54 *86:55 4.27319
30 *86:53 *86:55 0.313064
31 *86:53 *86:47 6.79324
32 *86:45 *86:47 1.18792
33 *86:42 *86:45 5.6525
34 *86:41 *86:42 1.53651
35 *132:Q *86:41 5.6525
36 *86:42 *86:43 1.909
37 *86:40 *86:43 2.26342
38 *152:B *86:40 5.6525
39 *86:40 *86:32 7.11795
40 *86:30 *86:32 5.48842
41 *86:30 *86:31 0.605457
42 *86:22 *86:31 5.47162
43 *86:20 *86:22 0.53204
44 *86:38 *86:20 10.5921
45 *86:38 *86:16 10.191
46 *86:14 *86:16 1.1711
47 *86:9 *86:14 0.25762
48 *86:9 *86:11 7.72982
49 *86:24 *86:11 0.486002
50 *86:21 *86:24 0.806461
51 *86:18 *86:21 10.3378
52 *86:18 *86:19 1.1543
53 *86:26 *86:19 6.75018
54 *86:26 *86:13 9.42272
55 *148:B *86:13 2.24048
*END

*D_NET *6 0.00249873

*CONN
*I *161:Q O *C 28.46 25.96 *L 0 *D NOR2XL
*I *96:A I *C 22.12 35 *L 0.00231 *D CLKBUFX3

*CAP
1 *6:2 0.00131233
2 *6:4 0.00046344
3 *6:5 0.00072296

*RES
1 *161:Q *6:4 5.6525
2 *6:5 *6:4 6.34969
3 *6:5 *6:2 9.94897
4 *6:2 *6:3 6.14605
5 *96:A *6:3 11.305
*END

*D_NET *22 0.00185721

*CONN
*I *159:Q O *C 40.98 36.04 *L 0 *D NOR2XL
*I *111:A I *C 42.28 45.08 *L 0.00231 *D CLKBUFX3

*CAP
1 *159:Q 0.00017974
2 *22:3 0.00167747

*RES
1 *22:3 *22:2 12.5668
2 *159:Q *22:2 1.14279
3 *111:A *22:3 11.305
*END

*D_NET *38 0.00942584

*CONN
*P *38 I *C 45.64 59.92 *L 0
*I *130:A I *C 33.32 45.08 *L 0.00148 *D NAND2XL
*I *129:A I *C 45.64 24.92 *L 0.00148 *D NAND2XL
*I *124:A I *C 51.8 35 *L 0.00211 *D CLKINVX1

*CAP
1 *38:4 6.23e-05
2 *38:5 8.252e-05
3 *38:6 0.00099811
4 *38:7 0.00193219
5 *38:8 0.00222553
6 *38:9 0.00088061
7 *38:10 0.00088864
8 *38:11 0.00223166
9 *38:12 0.00012428

*RES
1 *38:5 *124:A 0.63906
2 *38:9 *38:5 8.72552
3 *38:9 *38:12 5.6525
4 *38:11 *38:12 4.22541
5 *38:8 *38:11 5.6525
6 *38:8 *38:4 15.5688
7 *38:4 *129:A 0.63906
8 *38:11 *38:6 13.7192
9 *38:6 *38:7 3.77022
10 *130:A *38:7 5.6525
11 *38:10 *38:7 15.2557
12 *38:10 *38 8.48635
*END

*D_NET *54 0.00660249

*CONN
*P *54 O *C 47.88 0 *L 0.25
*I *120:Q O *C 76.69 26.44 *L 0 *D CLKBUFX3

*CAP
1 *54:2 0.00146747
2 *54:3 0.00016819
3 *54:4 0.00088033
4 *54:5 0.002033
5 *54:7 0.0020535

*RES
1 *54 *54:3 0.41966
2 *54:7 *54:3 18.6418
3 *54:5 *54:7 5.6525
4 *54:5 *54:2 10.8556
5 *54:4 *54:2 14.4585
6 *54:4 *54:6 3.84128
7 *120:Q *54:6 5.6525
*END

*D_NET *70 0.00225122

*CONN
*P *70 O *C 65.8 0 *L 0.25
*I *119:Q O *C 67.73 16.36 *L 0 *D CLKBUFX3

*CAP
1 *70 0.00020129
2 *70:2 0.00204993

*RES
1 *119:Q *70:2 5.6525
2 *70:3 *70:2 15.6398
3 *70 *70:3 1.57204
*END

*D_NET *87 0.0115075

*CONN
*I *169:B I *C 64.68 15.96 *L 0.00142 *D NOR2XL
*I *167:B I *C 37.8 26.04 *L 0.00142 *D NOR2XL
*I *156:B I *C 60.76 36.12 *L 0.00142 *D NOR2XL
*I *154:B I *C 55.72 15.96 *L 0.00142 *D NOR2XL
*I *134:Q O *C 58.1 39.9 *L 0 *D NAND2XL

*CAP
1 *167:B 0.00041978
2 *87:5 0.00021251
3 *87:6 0.00020184
4 *87:9 0.00061671
5 *87:10 0.00178621
6 *87:12 3.287e-05
7 *87:13 0.00026318
8 *87:14 0.00050604
9 *87:15 0.0007018
10 *87:16 0.00078033
11 *87:17 0.00021734
12 *87:19 0.00081181
13 *87:20 0.00036518
14 *87:21 0.00051025
15 *87:22 0.00131766
16 *87:23 0.00110788
17 *87:24 0.00024285
18 *87:25 0.00043113
19 *87:27 0.00098216

*RES
1 *87:10 *87:11 0.331036
2 *87:6 *87:11 1.09768
3 *87:19 *87:6 8.27033
4 *87:8 *87:19 5.6525
5 *167:B *87:8 3.33816
6 *87:10 *87:12 11.9843
7 *87:12 *87:13 0.25762
8 *87:22 *87:13 6.8236
9 *87:21 *87:22 2.2337
10 *87:20 *87:21 1.53651
11 *154:B *87:20 5.6525
12 *87:21 *87:14 7.84787
13 *87:14 *87:15 0.53204
14 *87:15 *87:18 5.47162
15 *87:17 *87:18 0.605457
16 *87:17 *87:5 0.59586
17 *87:7 *87:5 0.456715
18 *87:9 *87:7 7.18901
19 *169:B *87:9 5.6525
20 *87:22 *87:23 6.07499
21 *87:23 *87:16 10.6823
22 *87:27 *87:16 9.10965
23 *156:B *87:27 5.6525
24 *87:23 *87:24 4.15434
25 *87:24 *87:25 1.14074
26 *87:25 *87:26 1.59594
27 *134:Q *87:26 5.6525
*END

*D_NET *7 0.00564714

*CONN
*I *164:Q O *C 64.3 25.96 *L 0 *D NOR2XL
*I *97:A I *C 42.28 14.84 *L 0.00231 *D CLKBUFX3

*CAP
1 *7:2 0.00351529
2 *7:3 0.00105335
3 *7:5 0.00018167
4 *7:6 0.00089683

*RES
1 *97:A *7:4 11.305
2 *7:2 *7:4 3.07302
3 *7:7 *7:2 20.7046
4 *7:3 *7:7 5.6525
5 *7:6 *7:3 4.38194
6 *7:6 *7:5 4.38194
7 *164:Q *7:5 5.6525
*END

*D_NET *23 0.00439439

*CONN
*I *160:Q O *C 58.9 36.04 *L 0 *D NOR2XL
*I *112:A I *C 46.2 45.08 *L 0.00231 *D CLKBUFX3

*CAP
1 *23:2 0.0001718
2 *23:4 0.00016516
3 *23:6 0.00016756
4 *23:8 0.00011326
5 *23:9 0.00022248
6 *23:10 0.00018322
7 *23:11 0.00029017
8 *23:12 0.00171926
9 *23:13 0.00136148

*RES
1 *23:13 *23:11 12.4957
2 *23:10 *23:11 5.6525
3 *23:8 *23:10 5.6525
4 *160:Q *23:8 0.574349
5 *23:4 *23:10 0.384128
6 *23:5 *23:4 0.384128
7 *23:2 *23:11 0.374264
8 *23:3 *23:2 0.374264
9 *23:12 *23:13 5.6525
10 *23:12 *23:9 14.9426
11 *112:A *23:9 11.305
12 *23:6 *23:9 0.384128
13 *23:7 *23:6 0.384128
*END

*D_NET *39 0.00816822

*CONN
*P *39 O *C 31.08 0 *L 0.25
*I *91:Q O *C 79.49 36.42 *L 0 *D CLKBUFX4

*CAP
1 *39:2 4.189e-05
2 *39:4 0.00139646
3 *39:5 0.00021773
4 *39:6 0.00065494
5 *39:7 0.00012394
6 *39:8 0.00040532
7 *39:9 0.0014107
8 *39:11 0.00082043
9 *39:12 0.00309681

*RES
1 *39 *39:7 0.41966
2 *39:7 *39:5 5.6525
3 *39:2 *39:5 0.0960321
4 *39:3 *39:2 0.0960321
5 *39:5 *39:9 5.6525
6 *39:4 *39:9 6.14385
7 *39:4 *39:6 5.89371
8 *39:13 *39:6 3.27003
9 *39:12 *39:13 5.6525
10 *39:12 *39:11 28.6291
11 *39:11 *39:8 10.3331
12 *39:8 *39:10 1.15238
13 *91:Q *39:10 5.6525
*END

*D_NET *55 0.00667021

*CONN
*P *55 O *C 49 0 *L 0.25
*I *94:Q O *C 67.73 26.44 *L 0 *D CLKBUFX3

*CAP
1 *94:Q 0.00013087
2 *55:2 0.00056357
3 *55:3 0.00087303
4 *55:5 0.00290395
5 *55:6 0.00013765
6 *55:7 0.00206114

*RES
1 *55:3 *55:7 5.6525
2 *55:7 *55:2 10.0873
3 *55:8 *55:2 3.42821
4 *55:5 *55:8 5.6525
5 *55:5 *55:4 19.7942
6 *94:Q *55:4 1.14279
7 *55:6 *55:3 8.27033
8 *55 *55:6 0.455192
*END

*D_NET *72 0.00150648

*CONN
*I *174:A I *C 71.1 39.19 *L 0.0012 *D NOR2XL
*I *173:Q O *C 72.86 46.42 *L 0 *D INVXL
*I *125:B I *C 73.06 40.16 *L 0.00239 *D AND2X3

*CAP
1 *72:3 6.925e-05
2 *72:4 0.00015733
3 *72:5 0.00023829
4 *72:6 8.835e-05
5 *72:7 0.00095326

*RES
1 *72:6 *72:7 0.372488
2 *72:7 *72:8 1.15238
3 *125:B *72:8 11.305
4 *72:7 *72:3 8.35498
5 *72:3 *72:4 0.63906
6 *72:4 *173:Q 1.14279
7 *72:5 *72:6 0.768256
8 *174:A *72:5 5.6525
*END

*D_NET *88 0.0129047

*CONN
*I *170:B I *C 68.04 46.2 *L 0.00142 *D NOR2XL
*I *160:B I *C 58.52 36.12 *L 0.00142 *D NOR2XL