*SPEF "IEEE 1481-1998"
*DESIGN "nnspc"
*DATE "Mon Aug 28 16:36:34 2017"
*VENDOR "Cadence Design Systems, Inc."
*PROGRAM "Innovus"
*VERSION "15.28-s017_1"
*DESIGN_FLOW "PIN_CAP NONE" "NAME_SCOPE LOCAL"
*DIVIDER /
*DELIMITER :
*BUS_DELIMITER []
*T_UNIT 1 NS
*C_UNIT 1 PF
*R_UNIT 1 OHM
*L_UNIT 1 HENRY

// MMMC spef file for corner 'ams_rc_corner_typ'

*NAME_MAP

*1 Cfg_in
*2 Clk
*3 Resetn
*4 NSEL[4]
*5 NSEL[3]
*6 NSEL[2]
*7 NSEL[1]
*8 NSEL[0]
*9 DAC[3]
*10 DAC[2]
*11 DAC[1]
*12 DAC[0]
*13 RE
*14 FE_OFN0_Resetn
*15 CTS_4
*16 count[4]
*17 count[3]
*18 count[2]
*19 count[1]
*20 count[0]
*21 out[9]
*22 out[8]
*23 out[7]
*24 out[6]
*25 out[5]
*26 out[4]
*27 out[3]
*28 out[2]
*29 out[1]
*30 out[0]
*31 UNCONNECTED
*32 UNCONNECTED0
*33 UNCONNECTED1
*34 UNCONNECTED2
*35 UNCONNECTED3
*36 UNCONNECTED4
*37 UNCONNECTED5
*38 UNCONNECTED6
*39 UNCONNECTED7
*40 UNCONNECTED8
*41 UNCONNECTED9
*42 UNCONNECTED10
*43 UNCONNECTED11
*44 UNCONNECTED12
*45 UNCONNECTED13
*46 UNCONNECTED14
*47 UNCONNECTED15
*48 UNCONNECTED16
*49 UNCONNECTED17
*50 UNCONNECTED18
*51 UNCONNECTED19
*52 UNCONNECTED20
*53 UNCONNECTED21
*54 UNCONNECTED22
*55 n_0
*56 n_1
*57 n_2
*58 n_3
*59 n_4
*60 n_5
*61 n_6
*62 n_7
*63 n_8
*64 n_9
*65 n_10
*66 n_12
*67 n_13
*68 g33
*69 g34
*70 g140
*71 g144
*72 g141
*73 g143
*74 out_reg\[0\]
*75 out_reg\[1\]
*76 out_reg\[2\]
*77 out_reg\[3\]
*78 out_reg\[4\]
*79 out_reg\[5\]
*80 out_reg\[6\]
*81 out_reg\[7\]
*82 out_reg\[8\]
*83 out_reg\[9\]
*84 count_reg\[4\]
*85 count_reg\[2\]
*86 count_reg\[0\]
*87 g147
*88 g83
*89 RE_reg
*90 DAC_reg\[0\]
*91 DAC_reg\[1\]
*92 DAC_reg\[2\]
*93 DAC_reg\[3\]
*94 NSEL_reg\[0\]
*95 NSEL_reg\[1\]
*96 NSEL_reg\[3\]
*97 NSEL_reg\[2\]
*98 NSEL_reg\[4\]
*99 count_reg\[3\]
*100 count_reg\[1\]
*101 CTS_ccl_BUF_Clk_G0_L1_1
*102 g136
*103 g138
*104 g145
*105 g81
*106 FE_OFC0_Resetn


*PORTS

*1 I *C 40.6 70
*2 I *C 41.16 70
*3 I *C 41.72 70
*4 O *C 45.08 0
*5 O *C 43.96 0
*6 O *C 42.84 0
*7 O *C 41.72 0
*8 O *C 40.6 0
*9 O *C 39.48 0
*10 O *C 38.36 0
*11 O *C 37.24 0
*12 O *C 36.12 0
*13 O *C 46.2 0


*D_NET *1 0.00416589

*CONN
*P *1 I *C 40.6 70 *L 0
*I *83:D I *C 31.08 45.08 *L 0.00187 *D DFCX1

*CAP
1 *1 0.000212323
2 *83:D 0.00105694
3 *1:2 0.000739978
4 *1:3 0.00190185
5 *1:4 6.93491e-05
6 *1:5 0.000116281
7 *1:6 6.91721e-05

*RES
1 *1:5 *1:6 0.188821
2 *83:D *1:6 3.8817
3 *1:2 *1:3 5.78355
4 *1:4 *1:5 0.198363
5 *1:3 *1:4 0.188821
6 *1 *1:2 4.28162
*END

*D_NET *17 0.00459757

*CONN
*I *103:A I *C 23.24 50.12 *L 0.0043 *D XOR2X1
*I *99:Q O *C 23.8 55.72 *L 0 *D DFPX3
*I *70:B I *C 31.64 56.28 *L 0.00141 *D NOR2XL
*I *69:B I *C 35.56 38.92 *L 0.00141 *D NOR2XL

*CAP
1 *103:A 0.00033739
2 *69:B 0.00066767
3 *17:4 0.00183582
4 *17:5 0.000303009
5 *17:6 0.000496172
6 *17:7 0.000191387
7 *17:8 0.000277436
8 *17:9 6.87842e-05
9 *17:10 0.000188873
10 *17:11 0.000231026

*RES
1 *17:7 *17:10 0.404054
2 *17:6 *17:7 0.194231
3 *17:6 *17:11 3.08377
4 *17:4 *17:11 10.9484
5 *17:8 *17:10 0.792516
6 *103:A *17:9 2.09034
7 *17:12 *17:5 0.354783
8 *17:8 *17:9 0.188821
9 *69:B *17:4 3.3917
10 *17:12 *17:11 3.38339
11 *17:12 *70:B 2.574
12 *17:10 *99:Q 1.287
*END

*D_NET *65 0.00334976

*CONN
*I *104:B I *C 23.94 29.8 *L 0.00391 *D XOR2X1
*I *88:C I *C 35 34.44 *L 0.00175 *D NAND3X1
*I *86:QN O *C 24.73 34.7 *L 0 *D DFCX1
*I *86:D I *C 14.84 35 *L 0.00187 *D DFCX1

*CAP
1 *104:B 0.000109814
2 *65:4 0.000185164
3 *65:5 0.00014894
4 *65:6 0.000188913
5 *65:7 0.000261907
6 *65:8 6.85252e-05
7 *65:9 0.000213717
8 *65:10 7.35684e-05
9 *65:11 0.00040784
10 *65:12 0.000211954
11 *65:13 0.000667008
12 *65:14 0.000812407

*RES
1 *65:7 *65:15 0.648195
2 *65:9 *65:10 0.249552
3 *65:4 *65:5 0.343962
4 *65:6 *65:7 0.249552
5 *65:12 *65:16 0.198363
6 *65:13 *65:14 3.59354
7 *65:16 *65:13 2.99462
8 *65:8 *65:11 0.792516
9 *65:12 *65:17 0.598924
10 *65:15 *65:8 0.188821
11 *65:17 *65:4 1.287
12 *65:13 *65:6 1.287
13 *65:14 *65:9 1.287
14 *65:4 *88:C 1.287
15 *65:11 *104:B 1.287
16 *65:6 *86:QN 1.287
17 *65:9 *86:D 1.287
*END

*D_NET *2 0.00480948

*CONN
*P *2 I *C 41.16 70 *L 0
*I *105:A I *C 44.52 45.08 *L 0.00637 *D NOR2X6
*I *101:A I *C 35 55.16 *L 0.00322 *D CLKBUFX6

*CAP
1 *2 0.000438459
2 *105:A 0.00116432
3 *2:3 0.000141061
4 *2:4 0.000248425
5 *2:5 0.00016345
6 *2:6 0.00203126
7 *2:7 0.000622508

*RES
1 *2:3 *2:6 2.49567
2 *105:A *2:3 4.88054
3 *2:8 *2:6 6.27803
4 *2:4 *2:5 0.343962
5 *2:6 *2:7 2.19605
6 *2 *2:8 1.287
7 *2:7 *2:4 1.287
8 *2:4 *101:A 1.287
*END

*D_NET *18 0.00467061

*CONN
*I *85:Q O *C 22.54 46.9 *L 0 *D DFCX1
*I *73:A2 I *C 19.69 39.34 *L 0.00199 *D AO21X3
*I *71:B I *C 27.16 46.2 *L 0.00141 *D NOR2XL
*I *68:A I *C 33.58 35.85 *L 0.0012 *D NOR2XL

*CAP
1 *73:A2 0.00103786
2 *68:A 0.00137957
3 *18:4 0.000148257
4 *18:5 0.000191945
5 *18:6 7.75912e-05
6 *18:7 0.000154957
7 *18:8 0.000173681
8 *18:9 0.000468676
9 *18:10 0.000413843
10 *18:11 0.000624231

*RES
1 *18:7 *18:8 0.343962
2 *18:4 *18:12 1.69105
3 *18:12 *18:11 2.3957
4 *18:9 *18:10 2.48485
5 *73:A2 *18:9 3.87152
6 *18:5 *18:6 0.249552
7 *68:A *18:4 4.88595
8 *18:10 *18:11 1.59713
9 *18:10 *18:7 1.287
10 *18:11 *18:5 1.287
11 *18:7 *85:Q 1.287
12 *18:5 *71:B 1.287
*END

*D_NET *66 0.000809199

*CONN
*I *88:A I *C 35.75 35.14 *L 0.00156 *D NAND3X1
*I *69:Q O *C 35.94 39 *L 0 *D NOR2XL

*CAP
1 *88:A 0.000809199

*RES
1 *88:A *69:Q 4.37618
*END

*D_NET *3 0.00238303

*CONN
*P *3 I *C 41.72 70 *L 0
*I *106:A I *C 42.28 55.16 *L 0.0022 *D CLKBUFX2

*CAP
1 *3 0.000259256
2 *106:A 0.00039363
3 *3:2 0.000123065
4 *3:3 0.000280916
5 *3:4 0.00125807
6 *3:5 6.80913e-05

*RES
1 *3:4 *3:5 0.188821
2 *106:A *3:5 1.88528
3 *3:6 *3:4 3.79191
4 *3:2 *3:3 0.592874
5 *3:6 *3:3 0.188821
6 *3 *3:2 1.287
*END

*D_NET *19 0.00379689

*CONN
*I *104:A I *C 25.48 29.96 *L 0.0043 *D XOR2X1
*I *100:Q O *C 24.92 25.48 *L 0 *D DFPX3
*I *87:A I *C 22.12 40.04 *L 0.00202 *D OR2X3
*I *68:B I *C 32.76 36.12 *L 0.00141 *D NOR2XL

*CAP
1 *104:A 0.000170522
2 *100:Q 0.000535774
3 *87:A 0.000172455
4 *68:B 0.000607965
5 *19:4 0.000113759
6 *19:5 0.000614109
7 *19:6 0.000718141
8 *19:7 0.000245639
9 *19:8 6.17652e-05
10 *19:9 6.7796e-05
11 *19:10 0.000488962

*RES
1 *19:6 *19:10 2.58929
2 *19:7 *19:8 0.193592
3 *104:A *19:7 1.68023
4 *19:4 *19:10 3.07295
5 *19:4 *19:5 2.76815
6 *19:6 *19:7 0.588103
7 *68:B *19:10 4.37113
8 *100:Q *19:9 2.28457
9 *19:8 *19:9 0.188821
10 *87:A *19:5 0.614137
*END

*D_NET *67 0.000824106

*CONN
*I *88:B I *C 35.39 36.26 *L 0.00162 *D NAND3X1
*I *68:Q O *C 33.14 36.04 *L 0 *D NOR2XL

*CAP
1 *88:B 0.000194817
2 *68:Q 0.000258244
3 *67:2 0.00030796
4 *67:3 6.30846e-05

*RES
1 *68:Q *67:2 0.931124
2 *88:B *67:3 1.47582
3 *67:2 *67:3 1.68023
*END

*D_NET *4 0.00526575

*CONN
*P *4 O *C 45.08 0 *L 0
*I *98:Q O *C 55.16 38.92 *L 0 *D DFCX6

*CAP
1 *4 0.000210956
2 *4:2 0.000355096
3 *4:3 0.00112433
4 *4:4 0.000216853
5 *4:5 0.00306776
6 *4:6 5.58195e-05
7 *4:7 0.00023494

*RES
1 *98:Q *4:2 1.68628
2 *4:8 *4:5 12.1768
3 *4:2 *4:3 4.89136
4 *4:8 *4:4 0.188821
5 *4:5 *4:6 0.188821
6 *4:3 *4:4 1.87987
7 *4:6 *4:7 0.603695
8 *4:7 *4 1.287
*END

*D_NET *20 0.000851515

*CONN
*I *87:B I *C 21.56 40.04 *L 0.00231 *D OR2X3
*I *86:Q O *C 22.54 36.82 *L 0 *D DFCX1

*CAP
1 *87:B 0.000214146
2 *20:2 0.000637369

*RES
1 *87:B *20:2 2.4788
2 *86:Q *20:2 2.97328
*END

*D_NET *5 0.00718176

*CONN
*P *5 O *C 43.96 0 *L 0
*I *96:Q O *C 55.16 49 *L 0 *D DFCX6

*CAP
1 *5 0.000214852
2 *5:2 0.000401479
3 *5:3 0.000324471
4 *5:4 6.87842e-05
5 *5:5 0.000741272
6 *5:6 0.000176621
7 *5:7 8.17226e-05
8 *5:8 0.000781625
9 *5:9 0.000211682
10 *5:10 0.000110429
11 *5:11 0.00406882

*RES
1 *5:8 *5:12 0.198363
2 *5:2 *5:13 0.592874
3 *5:2 *5:6 1.88592
4 *5:12 *5:9 0.598924
5 *5:3 *5:4 0.188821
6 *5:6 *5:7 0.198363
7 *5:9 *5:10 1.48123
8 *5:13 *5:5 0.188821
9 *5:7 *5:8 2.58452
10 *96:Q *5:3 1.89069
11 *5:4 *5:5 1.99513
12 *5:10 *5:11 14.1793
13 *5:11 *5 1.287
*END

*D_NET *21 0.00522464

*CONN
*I *98:D I *C 45.64 40.04 *L 0.00171 *D DFCX6
*I *83:Q O *C 38.78 46.9 *L 0 *D DFCX1
*I *82:D I *C 59.64 55.16 *L 0.00187 *D DFCX1

*CAP
1 *98:D 0.000215605
2 *83:Q 0.000163203
3 *21:3 0.000417679
4 *21:4 6.99104e-05
5 *21:5 0.00153476
6 *21:6 0.00135857
7 *21:7 0.00146491

*RES
1 *21:6 *21:7 3.48305
2 *83:Q *21:6 3.27259
3 *82:D *21:3 2.28998
4 *21:5 *21:7 6.08921
5 *21:3 *21:4 0.188821
6 *98:D *21:7 2.97328
7 *21:4 *21:5 3.98678
*END

*D_NET *6 0.00570293

*CONN
*P *6 O *C 42.84 0 *L 0
*I *97:Q O *C 55.16 36.12 *L 0 *D DFCX6

*CAP
1 *6 0.000208427
2 *6:2 0.000396313
3 *6:3 0.0013413
4 *6:4 0.000187743
5 *6:5 4.54104e-05
6 *6:6 0.00101403
7 *6:7 0.00250971

*RES
1 *6:3 *6:4 1.87987
2 *6:5 *6:6 3.79191
3 *6:8 *6:2 0.343962
4 *6:3 *6:9 4.40293
5 *6:10 *6:6 0.188821
6 *6:10 *6:7 8.19007
7 *6:4 *6:5 0.188821
8 *6:7 *6 1.287
9 *6:9 *6:2 1.287
10 *6:2 *97:Q 1.287
*END

*D_NET *22 0.00365962

*CONN
*I *96:D I *C 45.64 50.12 *L 0.00171 *D DFCX6
*I *82:Q O *C 67.34 56.98 *L 0 *D DFCX1
*I *81:D I *C 60.2 50.12 *L 0.00187 *D DFCX1

*CAP
1 *96:D 0.000198616
2 *82:Q 0.000178329
3 *81:D 0.00019832
4 *22:3 0.000943276
5 *22:4 0.00147422
6 *22:5 0.000666855

*RES
1 *81:D *22:5 2.97328
2 *96:D *22:4 1.68628
3 *82:Q *22:3 3.28341
4 *22:4 *22:5 6.47767
5 *22:3 *22:5 3.88234
*END

*D_NET *7 0.00434363

*CONN
*P *7 O *C 41.72 0 *L 0
*I *95:Q O *C 68.04 15.96 *L 0 *D DFCX6

*CAP
1 *7 0.000269485
2 *95:Q 0.000153791
3 *7:2 0.0015623
4 *7:3 0.00112157
5 *7:4 6.07964e-05
6 *7:5 0.00050251
7 *7:6 0.000673177

*RES
1 *7:3 *7:7 4.98562
2 *7:5 *7:8 0.198363
3 *95:Q *7:2 6.06757
4 *7:4 *7:5 1.98559
5 *7:3 *7:4 0.198363
6 *7:8 *7:6 2.18523
7 *7 *7:6 0.241782
8 *7:7 *7:2 1.287
*END

*D_NET *23 0.00502074

*CONN
*I *97:D I *C 45.64 35 *L 0.00171 *D DFCX6
*I *81:Q O *C 67.9 48.3 *L 0 *D DFCX1
*I *80:D I *C 59.64 45.08 *L 0.00187 *D DFCX1

*CAP
1 *97:D 0.000671797
2 *81:Q 0.000160748
3 *23:3 0.000728232
4 *23:4 0.000307097
5 *23:5 0.000661907
6 *23:6 0.000112022
7 *23:7 0.0001844
8 *23:8 6.89407e-05
9 *23:9 0.00094403
10 *23:10 0.00118157

*RES
1 *23:4 *23:11 1.88592
2 *23:3 *23:10 4.29244
3 *23:9 *23:11 0.198363
4 *23:5 *23:6 0.388462
5 *80:D *23:10 2.97328
6 *23:4 *23:5 1.79072
7 *23:8 *23:9 3.18344
8 *23:7 *23:8 0.198363
9 *81:Q *23:3 2.87331
10 *97:D *23:6 2.68385
11 *23:7 *23:10 0.787745
*END

*D_NET *55 0.00212325

*CONN
*I *87:Q O *C 20.63 38.36 *L 0 *D OR2X3
*I *73:A1 I *C 18.76 40.04 *L 0.00199 *D AO21X3
*I *71:A I *C 26.34 45.93 *L 0.0012 *D NOR2XL

*CAP
1 *73:A1 0.000245406
2 *55:3 0.000882622
3 *55:4 0.000257249
4 *55:5 0.000182707
5 *55:6 0.000555267

*RES
1 *73:A1 *87:Q 0.922716
2 *71:A *55:3 3.08377
3 *55:4 *55:5 0.449193
4 *55:3 *55:6 3.29423
5 *55:6 *55:4 1.287
6 *55:4 *87:Q 1.287
*END

*D_NET *8 0.00595401

*CONN
*P *8 O *C 40.6 0 *L 0
*I *94:Q O *C 68.04 18.76 *L 0 *D DFCX6

*CAP
1 *8 0.00034618
2 *94:Q 0.000342004
3 *8:2 0.000136994
4 *8:3 0.00299044
5 *8:4 0.00213839

*RES
1 *94:Q *8:2 1.8751
2 *8:3 *8:4 8.66291
3 *8:2 *8:3 10.8806
4 *8:4 *8 1.287
*END

*D_NET *24 0.00609189

*CONN
*I *95:D I *C 58.52 14.84 *L 0.00171 *D DFCX6
*I *80:Q O *C 67.34 46.9 *L 0 *D DFCX1
*I *79:D I *C 60.2 40.04 *L 0.00187 *D DFCX1

*CAP
1 *95:D 0.000387263
2 *79:D 0.000196673
3 *24:3 0.000273012
4 *24:4 0.000298728
5 *24:5 0.000521112
6 *24:6 0.000191414
7 *24:7 0.00020042
8 *24:8 0.00239539
9 *24:9 6.82004e-05
10 *24:10 0.000865249
11 *24:11 0.000632383
12 *24:12 6.20497e-05

*RES
1 *24:9 *24:11 1.39621
2 *79:D *24:10 1.67546
3 *24:6 *24:10 2.39442
4 *24:5 *24:12 3.28341
5 *95:D *24:11 2.27439
6 *24:8 *24:9 0.188821
7 *24:3 *24:4 0.499103
8 *24:5 *24:6 0.194231
9 *24:7 *24:10 0.393233
10 *24:13 *24:8 7.18581
11 *24:13 *24:7 0.188821
12 *24:12 *24:3 1.287
13 *24:3 *80:Q 2.574
*END

*D_NET *56 0.00139976

*CONN
*I *104:Q O *C 23.46 30.46 *L 0 *D XOR2X1
*I *100:D I *C 16.38 25.62 *L 0.00189 *D DFPX3

*CAP
1 *104:Q 0.000677481
2 *100:D 0.000629967
3 *56:2 9.23132e-05

*RES
1 *104:Q *56:2 3.69927
2 *100:D *56:2 4.16572
*END

*D_NET *9 0.00487557

*CONN
*P *9 O *C 39.48 0 *L 0
*I *93:Q O *C 53.48 28.84 *L 0 *D DFCX6

*CAP
1 *9 0.000205724
2 *9:2 0.000217698
3 *9:3 0.0001655
4 *9:4 0.000165223
5 *9:5 8.18521e-05
6 *9:6 0.00101433
7 *9:7 0.000438305
8 *9:8 0.00258694

*RES
1 *9:5 *9:6 3.18344
2 *9:7 *9:8 11.4687
3 *9:2 *9:3 0.449193
4 *9:4 *9:5 0.198363
5 *9:9 *9:7 1.19785
6 *9:6 *9:9 0.198363
7 *9:4 *9:10 0.598924
8 *9:8 *9 1.287
9 *9:10 *9:2 1.287
10 *9:2 *93:Q 1.287
*END

*D_NET *25 0.00378134

*CONN
*I *94:D I *C 58.52 19.88 *L 0.00171 *D DFCX6
*I *79:Q O *C 67.9 38.22 *L 0 *D DFCX1
*I *78:D I *C 60.2 35 *L 0.00187 *D DFCX1

*CAP
1 *94:D 0.000263085
2 *25:3 0.000204389
3 *25:4 0.000174111
4 *25:5 0.000928548
5 *25:6 0.00174875
6 *25:7 0.000462461

*RES
1 *25:6 *25:7 5.38968
2 *25:5 *25:7 1.19244
3 *25:3 *25:4 0.343962
4 *94:D *25:6 1.8751
5 *25:3 *25:5 5.3798
6 *25:7 *78:D 1.287
7 *25:3 *79:Q 1.287
*END

*D_NET *57 0.00510235

*CONN
*I *103:B I *C 21.7 49.96 *L 0.00391 *D XOR2X1
*I *73:B1 I *C 18.2 40.04 *L 0.00241 *D AO21X3
*I *72:A I *C 29.4 56.28 *L 0.00136 *D INVXL
*I *71:Q O *C 26.78 46.12 *L 0 *D NOR2XL

*CAP
1 *103:B 0.00013249
2 *73:B1 0.000462867
3 *72:A 0.000379835
4 *57:4 0.000116479
5 *57:5 0.000274272
6 *57:6 0.000207237
7 *57:7 0.00097283
8 *57:8 0.000222286
9 *57:9 0.000609646
10 *57:10 0.000719355
11 *57:11 0.00100505

*RES
1 *57:4 *57:7 4.27557
2 *57:10 *57:11 3.28341
3 *57:12 *57:9 3.37734
4 *57:8 *57:11 2.87272
5 *57:5 *57:6 0.449193
6 *57:13 *57:11 1.00362
7 *57:8 *57:9 0.588103
8 *57:7 *57:8 0.787745
9 *73:B1 *57:10 3.77185
10 *72:A *57:4 1.85384
11 *103:B *57:12 0.31598
12 *57:13 *57:5 1.287
13 *57:5 *71:Q 1.287
*END

*D_NET *10 0.0037462

*CONN
*P *10 O *C 38.36 0 *L 0
*I *92:Q O *C 52.92 15.96 *L 0 *D DFCX6

*CAP
1 *10 0.000244896
2 *92:Q 0.000153791
3 *10:2 0.00144809
4 *10:3 0.000421184
5 *10:4 0.00082355
6 *10:5 0.000303328
7 *10:6 0.000351356

*RES
1 *10:3 *10:7 1.19244
2 *10:4 *10:5 0.597645
3 *92:Q *10:2 5.66829
4 *10:8 *10:4 2.78416
5 *10:3 *10:8 0.198363
6 *10:5 *10:6 0.987386
7 *10 *10:6 0.241782
8 *10:7 *10:2 1.287
*END

*D_NET *26 0.00395694

*CONN
*I *93:D I *C 43.96 29.96 *L 0.00171 *D DFCX6
*I *78:Q O *C 67.9 36.82 *L 0 *D DFCX1
*I *77:D I *C 58.52 29.96 *L 0.00187 *D DFCX1

*CAP
1 *78:Q 0.000188234
2 *26:3 0.000849014
3 *26:4 0.000225649
4 *26:5 0.000156906
5 *26:6 0.000223141
6 *26:7 0.000168916
7 *26:8 0.000745218
8 *26:9 0.00139986

*RES
1 *26:6 *26:7 0.449193
2 *78:Q *26:3 3.67188
3 *26:4 *26:5 0.449193
4 *26:8 *26:9 5.19068
5 *26:3 *26:8 4.69172
6 *26:8 *26:4 1.287
7 *26:9 *26:6 1.287
8 *26:4 *77:D 1.287
9 *26:6 *93:D 1.287
*END

*D_NET *58 0.00094788

*CONN
*I *85:D I *C 14.84 45.08 *L 0.00187 *D DFCX1
*I *73:Q O *C 17.29 40.54 *L 0 *D AO21X3

*CAP
1 *73:Q 0.000234965
2 *58:2 0.000712915

*RES
1 *73:Q *58:2 1.2387
2 *85:D *58:2 4.17113
*END

*D_NET *11 0.00290198

*CONN
*P *11 O *C 37.24 0 *L 0
*I *91:Q O *C 40.04 18.76 *L 0 *D DFCX6

*CAP
1 *11 0.000315405
2 *11:2 0.00225899
3 *11:3 0.000327581

*RES
1 *91:Q *11:2 7.0766
2 *11 *11:3 0.641065
3 *11:2 *11:3 2.28521
*END

*D_NET *27 0.00553983

*CONN
*I *92:D I *C 43.4 14.84 *L 0.00171 *D DFCX6
*I *77:Q O *C 66.22 28.14 *L 0 *D DFCX1
*I *76:D I *C 52.92 19.88 *L 0.00187 *D DFCX1

*CAP
1 *92:D 0.000377906
2 *77:Q 0.000174461
3 *27:3 0.000362036
4 *27:4 0.00114337
5 *27:5 6.35912e-05
6 *27:6 0.000426793
7 *27:7 0.00109648
8 *27:8 0.00189519

*RES
1 *92:D *27:7 1.88051
2 *77:Q *27:3 1.87987
3 *27:5 *27:6 0.603695
4 *27:9 *27:3 0.188821
5 *27:4 *27:5 0.188821
6 *76:D *27:8 3.76644
7 *27:6 *27:8 6.07839
8 *27:9 *27:4 2.99334
9 *27:7 *27:8 4.6809
*END

*D_NET *59 8.34842e-05

*CONN
*I *72:Q O *C 29.74 56.5 *L 0 *D INVXL
*I *70:A I *C 30.82 56.01 *L 0.0012 *D NOR2XL

*CAP
1 *72:Q 8.34842e-05

*RES
1 *72:Q *70:A 0.307572
*END

*D_NET *12 0.00331376

*CONN
*P *12 O *C 36.12 0 *L 0
*I *90:Q O *C 24.92 18.76 *L 0 *D DFCX6

*CAP
1 *12 0.000112115
2 *12:2 0.00320164

*RES
1 *90:Q *12:2 7.67552
2 *12 *12:2 5.29065
*END

*D_NET *28 0.0034407

*CONN
*I *91:D I *C 30.52 19.88 *L 0.00171 *D DFCX6
*I *76:Q O *C 45.22 18.06 *L 0 *D DFCX1
*I *75:D I *C 40.04 24.92 *L 0.00187 *D DFCX1

*CAP
1 *28:3 0.000148839
2 *28:4 0.000168323
3 *28:5 0.000887581
4 *28:6 0.00140903
5 *28:7 0.000826925

*RES
1 *28:6 *28:7 4.6809
2 *75:D *28:5 3.29423
3 *28:5 *28:7 1.68028
4 *28:3 *28:4 0.343962
5 *91:D *28:6 1.88051
6 *28:7 *28:8 1.79677
7 *28:8 *28:3 1.287
8 *28:3 *76:Q 1.287
*END

*D_NET *60 0.00156506

*CONN
*I *102:B I *C 38.22 55.32 *L 0.00391 *D XOR2X1
*I *70:Q O *C 31.26 56.2 *L 0 *D NOR2XL

*CAP
1 *102:B 0.000169342
2 *60:2 0.000236196
3 *60:3 0.000980324
4 *60:4 0.000179199

*RES
1 *102:B *60:2 1.67546
2 *60:3 *60:4 0.343962
3 *60:2 *60:3 5.18016
4 *60:3 *70:Q 1.287
*END

*D_NET *13 0.00338622

*CONN
*P *13 O *C 46.2 0 *L 0
*I *89:Q O *C 37.8 15.96 *L 0 *D DFCX6

*CAP
1 *13 0.00018093
2 *13:2 0.000153146
3 *13:3 0.00178771
4 *13:4 0.000145672
5 *13:5 0.000156804
6 *13:6 0.000961959

*RES
1 *13:2 *13:6 4.29244
2 *13:2 *13:3 5.19068
3 *13:4 *13:5 0.343962
4 *13 *13:3 1.287
5 *13:6 *13:4 1.287
6 *13:4 *89:Q 1.287
*END

*D_NET *29 0.00383868

*CONN
*I *90:D I *C 15.4 19.88 *L 0.00171 *D DFCX6
*I *75:Q O *C 32.34 26.74 *L 0 *D DFCX1
*I *74:D I *C 14.84 14.84 *L 0.00187 *D DFCX1

*CAP
1 *74:D 0.000464087
2 *29:3 0.000162984
3 *29:4 0.000157392
4 *29:5 0.000707023
5 *29:6 0.000273725
6 *29:7 6.86181e-05
7 *29:8 0.000801296
8 *29:9 0.000252111
9 *29:10 0.000882088
10 *29:11 6.93537e-05

*RES
1 *74:D *29:7 2.28457
2 *29:6 *29:7 0.188821
3 *29:9 *29:12 0.598924
4 *29:5 *29:8 2.3957
5 *29:9 *29:13 0.198363
6 *29:3 *29:4 0.343962
7 *29:5 *29:11 3.48305
8 *29:10 *29:11 0.198363
9 *29:6 *29:8 0.792516
10 *29:13 *29:10 3.18344
11 *29:12 *29:3 1.287
12 *29:3 *75:Q 1.287
13 *29:8 *90:D 1.287
*END

*D_NET *61 0.00126525

*CONN
*I *103:Q O *C 21.22 50.62 *L 0 *D XOR2X1
*I *99:D I *C 15.26 55.86 *L 0.00189 *D DFPX3

*CAP
1 *103:Q 0.000563948
2 *61:2 0.000701304

*RES
1 *103:Q *61:2 3.08413
2 *99:D *61:2 4.37077
*END

*D_NET *14 0.0280822

*CONN
*I *106:Q O *C 42.7 55.3 *L 0 *D CLKBUFX2
*I *100:SN I *C 22.21 25.47 *L 0.00389 *D DFPX3
*I *99:SN I *C 21.09 55.71 *L 0.00389 *D DFPX3
*I *98:RN I *C 52.92 38.36 *L 0.00427 *D DFCX6
*I *97:RN I *C 52.92 36.68 *L 0.00427 *D DFCX6
*I *96:RN I *C 52.92 48.44 *L 0.00427 *D DFCX6
*I *95:RN I *C 65.8 16.52 *L 0.00427 *D DFCX6
*I *94:RN I *C 65.8 18.2 *L 0.00427 *D DFCX6
*I *93:RN I *C 51.24 28.28 *L 0.00427 *D DFCX6
*I *92:RN I *C 50.68 16.52 *L 0.00427 *D DFCX6
*I *91:RN I *C 37.8 18.2 *L 0.00427 *D DFCX6
*I *90:RN I *C 22.68 18.2 *L 0.00427 *D DFCX6
*I *89:RN I *C 35.56 16.52 *L 0.00427 *D DFCX6
*I *86:RN I *C 21.7 35.7 *L 0.00444 *D DFCX1
*I *85:RN I *C 21.7 45.78 *L 0.00444 *D DFCX1
*I *84:RN I *C 33.18 49.42 *L 0.00444 *D DFCX1
*I *83:RN I *C 37.94 45.78 *L 0.00444 *D DFCX1
*I *82:RN I *C 66.5 55.86 *L 0.00444 *D DFCX1
*I *81:RN I *C 67.06 49.42 *L 0.00444 *D DFCX1
*I *80:RN I *C 66.5 45.78 *L 0.00444 *D DFCX1
*I *79:RN I *C 67.06 39.34 *L 0.00444 *D DFCX1
*I *78:RN I *C 67.06 35.7 *L 0.00444 *D DFCX1
*I *77:RN I *C 65.38 29.26 *L 0.00444 *D DFCX1
*I *76:RN I *C 46.06 19.18 *L 0.00444 *D DFCX1
*I *75:RN I *C 33.18 25.62 *L 0.00444 *D DFCX1
*I *74:RN I *C 21.7 15.54 *L 0.00444 *D DFCX1

*CAP
1 *106:Q 0.000939365
2 *95:RN 0.000413097
3 *92:RN 0.00125443
4 *89:RN 0.000183817
5 *86:RN 0.000130636
6 *84:RN 0.000272648
7 *76:RN 0.000826173
8 *74:RN 0.000379528
9 *14:26 9.47348e-05
10 *14:27 0.000357486
11 *14:28 0.00113871
12 *14:29 0.000861125
13 *14:30 0.000624811
14 *14:31 9.30628e-05
15 *14:32 0.000605267
16 *14:33 0.000300402
17 *14:34 7.48679e-05
18 *14:35 0.000416727
19 *14:36 0.000149934
20 *14:37 0.00014974
21 *14:38 0.000895205
22 *14:39 0.000105353
23 *14:40 0.000150548
24 *14:41 0.00016197
25 *14:42 0.000689281
26 *14:43 0.000731962
27 *14:44 7.168e-05
28 *14:45 9.62328e-05
29 *14:46 6.8617e-05
30 *14:47 0.00161074
31 *14:48 0.000888459
32 *14:49 0.000567941
33 *14:50 0.000730862
34 *14:51 0.00234114
35 *14:52 0.000184576
36 *14:53 0.000880253
37 *14:54 0.000745613
38 *14:55 0.00122726
39 *14:56 0.00111197
40 *14:57 0.000948215
41 *14:58 0.000852811
42 *14:59 0.000676716
43 *14:60 0.00120842
44 *14:61 0.000459369
45 *14:62 0.000961454
46 *14:63 0.000449016

*RES
1 *14:26 *14:54 3.6827
2 *14:34 *14:35 0.992157
3 *14:52 *14:55 0.588103
4 *14:42 *14:44 0.188821
5 *92:RN *14:35 4.47044
6 *83:RN *14:38 2.77364
7 *14:34 *14:56 0.188821
8 *14:45 *14:46 0.188821
9 *14:61 *14:62 2.59534
10 *82:RN *14:28 4.77483
11 *14:37 *14:38 1.99036
12 *89:RN *14:27 0.623552
13 *14:57 *14:62 3.87629
14 *14:29 *14:49 2.19
15 *14:33 *14:52 0.590489
16 *14:47 *14:59 5.27983
17 *78:RN *14:30 2.77364
18 *76:RN *14:36 4.77005
19 *14:33 *14:56 2.99334
20 *14:51 *14:63 4.88054
21 *14:42 *14:64 1.99513
22 *14:60 *14:61 1.99641
23 *14:51 *14:58 2.59534
24 *14:28 *14:49 1.39749
25 *14:48 *14:65 0.188821
26 *14:44 *14:51 3.58214
27 *106:Q *14:26 5.5447
28 *14:27 *14:39 1.87987
29 *99:SN *14:47 4.17113
30 *14:40 *14:41 0.343962
31 *14:32 *14:50 1.38667
32 *79:RN *14:29 2.77364
33 *14:54 *14:55 3.59354
34 *14:66 *14:60 5.19609
35 *14:47 *14:48 1.99036
36 *14:32 *14:53 2.59534
37 *14:43 *14:65 1.59585
38 *84:RN *14:59 4.45992
39 *14:37 *14:59 3.09459
40 *74:RN *14:46 3.37734
41 *14:45 *14:58 0.193592
42 *14:31 *14:50 2.20083
43 *81:RN *14:28 2.77364
44 *14:62 *14:63 1.79677
45 *14:64 *14:43 0.388462
46 *14:30 *14:31 0.388462
47 *14:39 *14:57 0.388462
48 *86:RN *14:44 2.77364
49 *14:29 *14:30 1.38608
50 *95:RN *14:53 1.88051
51 *14:66 *14:32 1.287
52 *14:60 *14:35 1.287
53 *14:61 *14:36 1.287
54 *14:63 *14:40 1.287
55 *14:49 *80:RN 2.574
56 *14:50 *77:RN 2.574
57 *14:40 *75:RN 2.574
58 *14:51 *100:SN 2.574
59 *14:65 *85:RN 2.574
60 *14:52 *97:RN 1.287
61 *14:53 *94:RN 1.287
62 *14:54 *96:RN 1.287
63 *14:55 *98:RN 1.287
64 *14:56 *93:RN 1.287
65 *14:57 *91:RN 1.287
66 *14:58 *90:RN 1.287
*END

*D_NET *30 0.00123332

*CONN
*I *89:D I *C 28.28 14.84 *L 0.00171 *D DFCX6
*I *74:Q O *C 22.54 16.66 *L 0 *D DFCX1

*CAP
1 *74:Q 0.000180959
2 *30:2 0.000312993
3 *30:3 0.000739371

*RES
1 *74:Q *30:3 1.8751
2 *30:3 *30:4 2.6899
3 *30:4 *30:2 1.287
4 *30:2 *89:D 1.287
*END

*D_NET *62 0.000827981

*CONN
*I *102:Q O *C 38.7 54.66 *L 0 *D XOR2X1
*I *84:D I *C 40.04 50.12 *L 0.00187 *D DFCX1

*CAP
1 *102:Q 0.000151337
2 *84:D 0.000558191
3 *62:2 0.000118453

*RES
1 *102:Q *62:2 0.623552
2 *84:D *62:2 4.17113
*END

*D_NET *15 0.0224463

*CONN
*I *101:Q O *C 33.81 54.74 *L 0 *D CLKBUFX6
*I *100:CP I *C 14.28 24.36 *L 0.00196 *D DFPX3
*I *99:CP I *C 13.16 54.6 *L 0.00196 *D DFPX3
*I *86:CP I *C 12.6 35 *L 0.00194 *D DFCX1
*I *85:CP I *C 12.6 45.08 *L 0.00194 *D DFCX1
*I *84:CP I *C 42.28 50.12 *L 0.00194 *D DFCX1
*I *83:CP I *C 28.84 45.08 *L 0.00194 *D DFCX1
*I *82:CP I *C 57.4 55.16 *L 0.00194 *D DFCX1
*I *81:CP I *C 57.96 50.12 *L 0.00194 *D DFCX1
*I *80:CP I *C 57.4 45.08 *L 0.00194 *D DFCX1
*I *79:CP I *C 57.96 40.04 *L 0.00194 *D DFCX1
*I *78:CP I *C 57.96 35 *L 0.00194 *D DFCX1
*I *77:CP I *C 56.28 29.96 *L 0.00194 *D DFCX1
*I *76:CP I *C 55.16 19.88 *L 0.00194 *D DFCX1
*I *75:CP I *C 42.28 24.92 *L 0.00194 *D DFCX1
*I *74:CP I *C 12.6 14.84 *L 0.00194 *D DFCX1

*CAP
1 *100:CP 0.000148602
2 *99:CP 0.000154639
3 *82:CP 0.000118747
4 *81:CP 9.7842e-05
5 *80:CP 0.000115314
6 *79:CP 9.46952e-05
7 *78:CP 0.000505057
8 *77:CP 0.00117133
9 *75:CP 0.000123851
10 *74:CP 0.00113957
11 *15:16 9.33237e-05
12 *15:17 0.000142299
13 *15:18 0.000785133
14 *15:19 0.000621581
15 *15:20 0.000592167
16 *15:21 0.000167298
17 *15:22 0.000204497
18 *15:23 0.000206481
19 *15:24 0.00015563
20 *15:25 0.00015703
21 *15:26 0.000116747
22 *15:27 0.000571932
23 *15:28 0.00159807
24 *15:29 0.0016115
25 *15:30 0.000380316
26 *15:31 0.000104286
27 *15:32 0.00013741
28 *15:33 0.000196644
29 *15:34 0.00020431
30 *15:35 6.83127e-05
31 *15:36 0.00236841
32 *15:37 0.00105589
33 *15:38 0.00414623
34 *15:39 0.000391056
35 *15:40 0.00270011

*RES
1 *15:22 *15:23 0.343962
2 *77:CP *15:21 4.86972
3 *15:26 *15:27 0.144321
4 *15:18 *15:41 0.393872
5 *15:34 *15:35 0.188821
6 *15:17 *15:42 0.393233
7 *15:43 *15:17 0.188821
8 *15:44 *15:40 8.39576
9 *15:29 *15:45 4.29244
10 *15:20 *15:21 1.44676
11 *78:CP *15:43 2.67844
12 *15:30 *15:31 0.388462
13 *15:21 *15:42 0.390848
14 *99:CP *15:34 1.87987
15 *15:37 *15:38 3.78236
16 *15:24 *15:25 0.343962
17 *75:CP *15:26 1.47582
18 *15:32 *15:33 0.343962
19 *15:29 *15:30 0.992157
20 *80:CP *15:46 0.623552
21 *15:19 *15:20 0.343962
22 *15:36 *15:37 3.58272
23 *15:16 *15:18 3.07772
24 *15:28 *15:47 5.88416
25 *101:Q *15:29 2.88413
26 *15:27 *15:28 1.44199
27 *15:36 *15:39 7.08201
28 *15:38 *15:48 11.8788
29 *15:39 *15:40 1.39208
30 *82:CP *15:16 0.623552
31 *15:18 *15:19 1.78595
32 *74:CP *15:38 4.67008
33 *15:35 *15:36 2.78893
34 *100:CP *15:38 2.21812
35 *15:31 *15:40 2.07952
36 *15:44 *15:19 1.287
37 *15:45 *15:24 1.287
38 *15:39 *15:32 1.287
39 *15:48 *15:26 1.287
40 *15:47 *15:22 1.287
41 *15:22 *76:CP 2.574
42 *15:24 *84:CP 2.574
43 *15:32 *83:CP 1.287
44 *15:36 *85:CP 1.287
45 *15:37 *86:CP 1.287
46 *15:41 *81:CP 1.287
47 *15:42 *79:CP 1.287
48 *15:19 *15:46 1.287
*END

*D_NET *63 0.0019614

*CONN
*I *105:B I *C 41.72 45.64 *L 0.00739 *D NOR2X6
*I *88:Q O *C 35.11 34.1 *L 0 *D NAND3X1

*CAP
1 *88:Q 0.000579596
2 *63:2 0.0013818

*RES
1 *88:Q *63:2 2.77656
2 *105:B *63:2 7.2549
*END

*D_NET *16 0.00311083

*CONN
*I *102:A I *C 36.68 55.16 *L 0.0043 *D XOR2X1
*I *84:Q O *C 32.34 48.3 *L 0 *D DFCX1
*I *69:A I *C 36.38 39.19 *L 0.0012 *D NOR2XL

*CAP
1 *69:A 0.00118862
2 *16:3 0.00104891
3 *16:4 0.00024766
4 *16:5 0.000171001
5 *16:6 0.000454638

*RES
1 *102:A *16:3 3.6827
2 *16:4 *16:5 0.343962
3 *16:3 *16:6 2.89495
4 *69:A *16:3 4.48126
5 *16:6 *16:4 1.287
6 *16:4 *84:Q 1.287
*END

*D_NET *64 0.0149532

*CONN
*I *105:Q O *C 42.46 46.76 *L 0 *D NOR2X6
*I *98:CP I *C 42.84 40.6 *L 0.00189 *D DFCX6
*I *97:CP I *C 42.84 34.44 *L 0.00189 *D DFCX6
*I *96:CP I *C 42.84 50.68 *L 0.00189 *D DFCX6
*I *95:CP I *C 55.72 14.28 *L 0.00189 *D DFCX6
*I *94:CP I *C 55.72 20.44 *L 0.00189 *D DFCX6
*I *93:CP I *C 41.16 30.52 *L 0.00189 *D DFCX6
*I *92:CP I *C 40.6 14.28 *L 0.00189 *D DFCX6
*I *91:CP I *C 27.72 20.44 *L 0.00189 *D DFCX6
*I *90:CP I *C 12.6 20.44 *L 0.00189 *D DFCX6
*I *89:CP I *C 25.48 14.28 *L 0.00189 *D DFCX6

*CAP
1 *98:CP 0.000267113
2 *97:CP 0.000160554
3 *95:CP 0.000680986
4 *94:CP 0.000379591
5 *92:CP 0.000569041
6 *90:CP 0.000128179
7 *89:CP 0.000766333
8 *64:11 7.87174e-05
9 *64:12 0.000591168
10 *64:13 0.000476699
11 *64:14 0.000303409
12 *64:15 0.00263748
13 *64:16 0.000375802
14 *64:17 0.000393687
15 *64:18 0.000616767
16 *64:19 0.000575891
17 *64:20 6.35442e-05
18 *64:21 0.000119372
19 *64:22 0.000149221
20 *64:23 0.000347343
21 *64:24 6.86311e-05
22 *64:25 8.7561e-05
23 *64:26 0.000151084
24 *64:27 0.000178625
25 *64:28 0.000500141
26 *64:29 0.000340442
27 *64:30 6.45469e-05
28 *64:31 0.00012623
29 *64:32 9.11216e-05
30 *64:33 0.000186857
31 *64:34 0.00128971
32 *64:35 0.00121967
33 *64:36 0.00019575
34 *64:37 0.000771944

*RES
1 *64:38 *64:37 3.19426
2 *64:17 *64:29 0.787745
3 *64:12 *64:33 2.87808
4 *64:39 *64:12 0.388462
5 *89:CP *64:24 2.4788
6 *105:Q *64:13 1.88051
7 *64:17 *64:32 2.29062
8 *64:19 *64:20 0.188821
9 *64:16 *64:19 1.39144
10 *64:23 *64:36 2.27916
11 *64:15 *64:16 0.787745
12 *64:15 *64:28 2.78416
13 *64:27 *64:28 1.38667
14 *64:16 *64:35 6.08921
15 *90:CP *64:40 0.623552
16 *64:35 *64:36 0.598924
17 *64:15 *64:33 6.07839
18 *95:CP *64:39 2.67844
19 *64:23 *64:24 0.188821
20 *98:CP *64:29 2.5257
21 *64:30 *64:31 0.343962
22 *64:11 *64:33 1.68628
23 *64:41 *64:27 0.393233
24 *64:18 *64:29 1.79072
25 *64:41 *64:18 0.188821
26 *64:21 *64:22 0.343962
27 *64:34 *64:36 5.19067
28 *64:25 *64:26 0.343962
29 *94:CP *64:11 2.08557
30 *92:CP *64:20 2.07952
31 *97:CP *64:27 2.21812
32 *64:38 *64:30 1.287
33 *64:37 *64:32 1.287
34 *64:30 *64:14 1.287
35 *64:32 *64:13 1.287
36 *64:34 *64:25 1.287
37 *64:35 *64:21 1.287
38 *64:14 *96:CP 1.287
39 *64:28 *93:CP 1.287
40 *64:21 *91:CP 1.287
41 *64:25 *64:40 1.287
*END

