*SPEF "IEEE 1481-1998"
*DESIGN "nnspc"
*DATE "Mon Aug 28 16:37:33 2017"
*VENDOR "Cadence Design Systems, Inc."
*PROGRAM "Innovus"
*VERSION "15.28-s017_1"
*DESIGN_FLOW "PIN_CAP NONE" "NAME_SCOPE LOCAL"
*DIVIDER /
*DELIMITER :
*BUS_DELIMITER []
*T_UNIT 1 NS
*C_UNIT 1 PF
*R_UNIT 1 OHM
*L_UNIT 1 HENRY

// MMMC spef file for corner 'ams_rc_corner_minCaR2'

*NAME_MAP

*1 Cfg_in
*2 Clk
*3 Resetn
*4 NSEL[4]
*5 NSEL[3]
*6 NSEL[2]
*7 NSEL[1]
*8 NSEL[0]
*9 DAC[3]
*10 DAC[2]
*11 DAC[1]
*12 DAC[0]
*13 RE
*14 FE_OFN0_Resetn
*15 CTS_4
*16 count[4]
*17 count[3]
*18 count[2]
*19 count[1]
*20 count[0]
*21 out[9]
*22 out[8]
*23 out[7]
*24 out[6]
*25 out[5]
*26 out[4]
*27 out[3]
*28 out[2]
*29 out[1]
*30 out[0]
*31 UNCONNECTED
*32 UNCONNECTED0
*33 UNCONNECTED1
*34 UNCONNECTED2
*35 UNCONNECTED3
*36 UNCONNECTED4
*37 UNCONNECTED5
*38 UNCONNECTED6
*39 UNCONNECTED7
*40 UNCONNECTED8
*41 UNCONNECTED9
*42 UNCONNECTED10
*43 UNCONNECTED11
*44 UNCONNECTED12
*45 UNCONNECTED13
*46 UNCONNECTED14
*47 UNCONNECTED15
*48 UNCONNECTED16
*49 UNCONNECTED17
*50 UNCONNECTED18
*51 UNCONNECTED19
*52 UNCONNECTED20
*53 UNCONNECTED21
*54 UNCONNECTED22
*55 n_0
*56 n_1
*57 n_2
*58 n_3
*59 n_4
*60 n_5
*61 n_6
*62 n_7
*63 n_8
*64 n_9
*65 n_10
*66 n_12
*67 n_13
*68 g33
*69 g34
*70 g140
*71 g144
*72 g141
*73 g143
*74 out_reg\[0\]
*75 out_reg\[1\]
*76 out_reg\[2\]
*77 out_reg\[3\]
*78 out_reg\[4\]
*79 out_reg\[5\]
*80 out_reg\[6\]
*81 out_reg\[7\]
*82 out_reg\[8\]
*83 out_reg\[9\]
*84 count_reg\[4\]
*85 count_reg\[2\]
*86 count_reg\[0\]
*87 g147
*88 g83
*89 RE_reg
*90 DAC_reg\[0\]
*91 DAC_reg\[1\]
*92 DAC_reg\[2\]
*93 DAC_reg\[3\]
*94 NSEL_reg\[0\]
*95 NSEL_reg\[1\]
*96 NSEL_reg\[3\]
*97 NSEL_reg\[2\]
*98 NSEL_reg\[4\]
*99 count_reg\[3\]
*100 count_reg\[1\]
*101 CTS_ccl_BUF_Clk_G0_L1_1
*102 g136
*103 g138
*104 g145
*105 g81
*106 FE_OFC0_Resetn


*PORTS

*1 I *C 40.6 70
*2 I *C 41.16 70
*3 I *C 41.72 70
*4 O *C 45.08 0
*5 O *C 43.96 0
*6 O *C 42.84 0
*7 O *C 41.72 0
*8 O *C 40.6 0
*9 O *C 39.48 0
*10 O *C 38.36 0
*11 O *C 37.24 0
*12 O *C 36.12 0
*13 O *C 46.2 0


*D_NET *1 0.00403537

*CONN
*P *1 I *C 40.6 70 *L 0
*I *83:D I *C 31.08 45.08 *L 0.00193 *D DFCX1

*CAP
1 *1 0.00022124
2 *83:D 0.00103174
3 *1:2 0.000709612
4 *1:3 0.00183629
5 *1:4 6.3982e-05
6 *1:5 0.000109251
7 *1:6 6.32589e-05

*RES
1 *1:5 *1:6 0.147476
2 *83:D *1:6 2.76739
3 *1:2 *1:3 5.24215
4 *1:4 *1:5 0.203463
5 *1:3 *1:4 0.147476
6 *1 *1:2 3.11804
*END

*D_NET *17 0.00457233

*CONN
*I *103:A I *C 23.24 50.12 *L 0.00444 *D XOR2X1
*I *99:Q O *C 23.8 55.72 *L 0 *D DFPX3
*I *70:B I *C 31.64 56.28 *L 0.00142 *D NOR2XL
*I *69:B I *C 35.56 38.92 *L 0.00142 *D NOR2XL

*CAP
1 *103:A 0.000336703
2 *69:B 0.00066003
3 *17:4 0.0018412
4 *17:5 0.000306232
5 *17:6 0.000505506
6 *17:7 0.000185827
7 *17:8 0.00026958
8 *17:9 6.28533e-05
9 *17:10 0.000165561
10 *17:11 0.000238839

*RES
1 *17:7 *17:10 0.389899
2 *17:6 *17:7 0.164215
3 *17:6 *17:11 2.03233
4 *17:4 *17:11 6.89611
5 *17:8 *17:10 0.718328
6 *103:A *17:9 1.15555
7 *17:12 *17:5 0.333406
8 *17:8 *17:9 0.147476
9 *69:B *17:4 3.56553
10 *17:12 *17:11 1.56479
11 *17:12 *70:B 0.8075
12 *17:10 *99:Q 0.40375
*END

*D_NET *65 0.00324016

*CONN
*I *104:B I *C 23.94 29.8 *L 0.00407 *D XOR2X1
*I *88:C I *C 35 34.44 *L 0.0018 *D NAND3X1
*I *86:QN O *C 24.73 34.7 *L 0 *D DFCX1
*I *86:D I *C 14.84 35 *L 0.00193 *D DFCX1

*CAP
1 *104:B 0.000116086
2 *65:4 0.000190705
3 *65:5 0.000142283
4 *65:6 0.00017936
5 *65:7 0.000248939
6 *65:8 6.2524e-05
7 *65:9 0.000200257
8 *65:10 6.77015e-05
9 *65:11 0.000401209
10 *65:12 0.000215865
11 *65:13 0.000642335
12 *65:14 0.000772895

*RES
1 *65:7 *65:15 0.599352
2 *65:9 *65:10 0.226191
3 *65:4 *65:5 0.299929
4 *65:6 *65:7 0.226191
5 *65:12 *65:16 0.203463
6 *65:13 *65:14 3.25715
7 *65:16 *65:13 2.71429
8 *65:8 *65:11 0.718328
9 *65:12 *65:17 0.542859
10 *65:15 *65:8 0.147476
11 *65:17 *65:4 0.40375
12 *65:13 *65:6 0.40375
13 *65:14 *65:9 0.40375
14 *65:4 *88:C 0.40375
15 *65:11 *104:B 0.40375
16 *65:6 *86:QN 0.40375
17 *65:9 *86:D 0.40375
*END

*D_NET *2 0.00477424

*CONN
*P *2 I *C 41.16 70 *L 0
*I *105:A I *C 44.52 45.08 *L 0.00674 *D NOR2X6
*I *101:A I *C 35 55.16 *L 0.00336 *D CLKBUFX6

*CAP
1 *2 0.000471503
2 *105:A 0.0011316
3 *2:3 0.000133877
4 *2:4 0.000234507
5 *2:5 0.000157797
6 *2:6 0.00201904
7 *2:7 0.000625913

*RES
1 *2:3 *2:6 1.52294
2 *105:A *2:3 3.6609
3 *2:8 *2:6 4.92757
4 *2:4 *2:5 0.299929
5 *2:6 *2:7 1.99048
6 *2 *2:8 0.40375
7 *2:7 *2:4 0.40375
8 *2:4 *101:A 0.40375
*END

*D_NET *18 0.00453652

*CONN
*I *85:Q O *C 22.54 46.9 *L 0 *D DFCX1
*I *73:A2 I *C 19.69 39.34 *L 0.00208 *D AO21X3
*I *71:B I *C 27.16 46.2 *L 0.00142 *D NOR2XL
*I *68:A I *C 33.58 35.85 *L 0.0012 *D NOR2XL

*CAP
1 *73:A2 0.00100985
2 *68:A 0.00128466
3 *18:4 0.000160035
4 *18:5 0.000184976
5 *18:6 7.20905e-05
6 *18:7 0.000157554
7 *18:8 0.000174728
8 *18:9 0.000470884
9 *18:10 0.00040567
10 *18:11 0.000616075

*RES
1 *18:7 *18:8 0.299929
2 *18:4 *18:12 0.793649
3 *18:12 *18:11 2.17144
4 *18:9 *18:10 1.48947
5 *73:A2 *18:9 2.72266
6 *18:5 *18:6 0.226191
7 *68:A *18:4 3.67764
8 *18:10 *18:11 1.44762
9 *18:10 *18:7 0.40375
10 *18:11 *18:5 0.40375
11 *18:7 *85:Q 0.40375
12 *18:5 *71:B 0.40375
*END

*D_NET *66 0.000855817

*CONN
*I *88:A I *C 35.75 35.14 *L 0.00162 *D NAND3X1
*I *69:Q O *C 35.94 39 *L 0 *D NOR2XL

*CAP
1 *88:A 0.000855817

*RES
1 *88:A *69:Q 2.45281
*END

*D_NET *3 0.00232742

*CONN
*P *3 I *C 41.72 70 *L 0
*I *106:A I *C 42.28 55.16 *L 0.00224 *D CLKBUFX2

*CAP
1 *3 0.000267961
2 *106:A 0.000387185
3 *3:2 0.000121191
4 *3:3 0.000272478
5 *3:4 0.0012172
6 *3:5 6.14072e-05

*RES
1 *3:4 *3:5 0.147476
2 *106:A *3:5 0.957864
3 *3:6 *3:4 3.46062
4 *3:2 *3:3 0.537375
5 *3:6 *3:3 0.147476
6 *3 *3:2 0.40375
*END

*D_NET *19 0.00372736

*CONN
*I *104:A I *C 25.48 29.96 *L 0.00444 *D XOR2X1
*I *100:Q O *C 24.92 25.48 *L 0 *D DFPX3
*I *87:A I *C 22.12 40.04 *L 0.00208 *D OR2X3
*I *68:B I *C 32.76 36.12 *L 0.00142 *D NOR2XL

*CAP
1 *104:A 0.000165068
2 *100:Q 0.000507758
3 *87:A 0.000173632
4 *68:B 0.000614704
5 *19:4 0.000112075
6 *19:5 0.000612698
7 *19:6 0.000685039
8 *19:7 0.000231067
9 *19:8 5.89028e-05
10 *19:9 6.30406e-05
11 *19:10 0.000503378

*RES
1 *19:6 *19:10 2.3469
2 *19:7 *19:8 0.17547
3 *104:A *19:7 0.760172
4 *19:4 *19:10 1.99885
5 *19:4 *19:5 2.89561
6 *19:6 *19:7 0.509382
7 *68:B *19:10 3.64754
8 *100:Q *19:9 1.31977
9 *19:8 *19:9 0.147476
10 *87:A *19:5 0.660064
*END

*D_NET *67 0.000830722

*CONN
*I *88:B I *C 35.39 36.26 *L 0.00168 *D NAND3X1
*I *68:Q O *C 33.14 36.04 *L 0 *D NOR2XL

*CAP
1 *88:B 0.000180063
2 *68:Q 0.000270222
3 *67:2 0.000322234
4 *67:3 5.82033e-05

*RES
1 *68:Q *67:2 0.991647
2 *88:B *67:3 0.551226
3 *67:2 *67:3 0.760172
*END

*D_NET *4 0.00525194

*CONN
*P *4 O *C 45.08 0 *L 0
*I *98:Q O *C 55.16 38.92 *L 0 *D DFCX6

*CAP
1 *4 0.000223894
2 *4:2 0.000343859
3 *4:3 0.00109258
4 *4:4 0.000228245
5 *4:5 0.00307339
6 *4:6 5.99197e-05
7 *4:7 0.000230049

*RES
1 *98:Q *4:2 0.765656
2 *4:8 *4:5 11.0606
3 *4:2 *4:3 3.69438
4 *4:8 *4:4 0.147476
5 *4:5 *4:6 0.147476
6 *4:3 *4:4 0.941125
7 *4:6 *4:7 0.570852
8 *4:7 *4 0.40375
*END

*D_NET *20 0.000831836

*CONN
*I *87:B I *C 21.56 40.04 *L 0.00238 *D OR2X3
*I *86:Q O *C 22.54 36.82 *L 0 *D DFCX1

*CAP
1 *87:B 0.000212188
2 *20:2 0.000619648

*RES
1 *87:B *20:2 1.48398
2 *86:Q *20:2 1.16941
*END

*D_NET *5 0.00729119

*CONN
*P *5 O *C 43.96 0 *L 0
*I *96:Q O *C 55.16 49 *L 0 *D DFCX6

*CAP
1 *5 0.00023651
2 *5:2 0.000391108
3 *5:3 0.00031598
4 *5:4 6.28533e-05
5 *5:5 0.000731178
6 *5:6 0.000202094
7 *5:7 8.03061e-05
8 *5:8 0.000777442
9 *5:9 0.000215744
10 *5:10 0.000105723
11 *5:11 0.00417225

*RES
1 *5:8 *5:12 0.203463
2 *5:2 *5:13 0.537375
3 *5:2 *5:6 0.946609
4 *5:12 *5:9 0.542859
5 *5:3 *5:4 0.147476
6 *5:6 *5:7 0.203463
7 *5:9 *5:10 0.567965
8 *5:13 *5:5 0.147476
9 *5:7 *5:8 2.31891
10 *96:Q *5:3 0.974602
11 *5:4 *5:5 1.83204
12 *5:10 *5:11 12.8757
13 *5:11 *5 0.40375
*END

*D_NET *21 0.00512025

*CONN
*I *98:D I *C 45.64 40.04 *L 0.00176 *D DFCX6
*I *83:Q O *C 38.78 46.9 *L 0 *D DFCX1
*I *82:D I *C 59.64 55.16 *L 0.00193 *D DFCX1

*CAP
1 *98:D 0.000211697
2 *83:Q 0.000153294
3 *21:3 0.000399562
4 *21:4 6.43939e-05
5 *21:5 0.00147531
6 *21:6 0.0013561
7 *21:7 0.00145989

*RES
1 *21:6 *21:7 2.39423
2 *83:Q *21:6 2.1798
3 *82:D *21:3 1.33651
4 *21:5 *21:7 4.7801
5 *21:3 *21:4 0.147476
6 *98:D *21:7 1.16941
7 *21:4 *21:5 3.61357
*END

*D_NET *6 0.00572652

*CONN
*P *6 O *C 42.84 0 *L 0
*I *97:Q O *C 55.16 36.12 *L 0 *D DFCX6

*CAP
1 *6 0.000223004
2 *6:2 0.000380728
3 *6:3 0.00126258
4 *6:4 0.000189191
5 *6:5 5.04917e-05
6 *6:6 0.00102355
7 *6:7 0.00259698

*RES
1 *6:3 *6:4 0.941125
2 *6:5 *6:6 3.46061
3 *6:8 *6:2 0.299929
4 *6:3 *6:9 4.01444
5 *6:10 *6:6 0.147476
6 *6:10 *6:7 7.44706
7 *6:4 *6:5 0.147476
8 *6:7 *6 0.40375
9 *6:9 *6:2 0.40375
10 *6:2 *97:Q 0.40375
*END

*D_NET *22 0.00359872

*CONN
*I *96:D I *C 45.64 50.12 *L 0.00176 *D DFCX6
*I *82:Q O *C 67.34 56.98 *L 0 *D DFCX1
*I *81:D I *C 60.2 50.12 *L 0.00193 *D DFCX1

*CAP
1 *96:D 0.000197098
2 *82:Q 0.000150735
3 *81:D 0.000196639
4 *22:3 0.000961549
5 *22:4 0.00143533
6 *22:5 0.000657366

*RES
1 *81:D *22:5 1.16941
2 *96:D *22:4 0.765656
3 *82:Q *22:3 2.21328
4 *22:4 *22:5 5.10853
5 *22:3 *22:5 2.75614
*END

*D_NET *7 0.00423758

*CONN
*P *7 O *C 41.72 0 *L 0
*I *95:Q O *C 68.04 15.96 *L 0 *D DFCX6

*CAP
1 *7 0.000279943
2 *95:Q 0.000146154
3 *7:2 0.00148285
4 *7:3 0.00109308
5 *7:4 5.89547e-05
6 *7:5 0.00051003
7 *7:6 0.000666564

*RES
1 *7:3 *7:7 4.50708
2 *7:5 *7:8 0.203463
3 *95:Q *7:2 4.71314
4 *7:4 *7:5 1.77605
5 *7:3 *7:4 0.203463
6 *7:8 *7:6 1.95701
7 *7 *7:6 0.230983
8 *7:7 *7:2 0.40375
*END

*D_NET *23 0.0049371

*CONN
*I *97:D I *C 45.64 35 *L 0.00176 *D DFCX6
*I *81:Q O *C 67.9 48.3 *L 0 *D DFCX1
*I *80:D I *C 59.64 45.08 *L 0.00193 *D DFCX1

*CAP
1 *97:D 0.000640567
2 *81:Q 0.000153103
3 *23:3 0.000725929
4 *23:4 0.000319422
5 *23:5 0.000635305
6 *23:6 0.000105465
7 *23:7 0.00017192
8 *23:8 6.73029e-05
9 *23:9 0.000922335
10 *23:10 0.00119575

*RES
1 *23:4 *23:11 0.946609
2 *23:3 *23:10 3.15152
3 *23:9 *23:11 0.203463
4 *23:5 *23:6 0.328429
5 *80:D *23:10 1.16941
6 *23:4 *23:5 1.62309
7 *23:8 *23:9 2.86177
8 *23:7 *23:8 0.203463
9 *81:Q *23:3 1.8179
10 *97:D *23:6 1.68168
11 *23:7 *23:10 0.690335
*END

*D_NET *55 0.00206653

*CONN
*I *87:Q O *C 20.63 38.36 *L 0 *D OR2X3
*I *73:A1 I *C 18.76 40.04 *L 0.00208 *D AO21X3
*I *71:A I *C 26.34 45.93 *L 0.0012 *D NOR2XL

*CAP
1 *73:A1 0.000250761
2 *55:3 0.000887372
3 *55:4 0.000245982
4 *55:5 0.000182183
5 *55:6 0.000500235

*RES
1 *73:A1 *87:Q 0.965204
2 *71:A *55:3 2.03233
3 *55:4 *55:5 0.407144
4 *55:3 *55:6 2.24676
5 *55:6 *55:4 0.40375
6 *55:4 *87:Q 0.40375
*END

*D_NET *8 0.005954

*CONN
*P *8 O *C 40.6 0 *L 0
*I *94:Q O *C 68.04 18.76 *L 0 *D DFCX6

*CAP
1 *8 0.000368859
2 *94:Q 0.000327645
3 *8:2 0.000133103
4 *8:3 0.00296962
5 *8:4 0.00215477

*RES
1 *94:Q *8:2 0.913132
2 *8:3 *8:4 7.06553
3 *8:2 *8:3 9.12297
4 *8:4 *8 0.40375
*END

*D_NET *24 0.00595232

*CONN
*I *95:D I *C 58.52 14.84 *L 0.00176 *D DFCX6
*I *80:Q O *C 67.34 46.9 *L 0 *D DFCX1
*I *79:D I *C 60.2 40.04 *L 0.00193 *D DFCX1

*CAP
1 *95:D 0.00036839
2 *79:D 0.000171787
3 *24:3 0.000291076
4 *24:4 0.000315836
5 *24:5 0.000533378
6 *24:6 0.000180792
7 *24:7 0.000187
8 *24:8 0.00234507
9 *24:9 6.2746e-05
10 *24:10 0.0008385
11 *24:11 0.000592979
12 *24:12 6.47632e-05

*RES
1 *24:9 *24:11 1.28918
2 *79:D *24:10 0.732179
3 *24:6 *24:10 2.19394
4 *24:5 *24:12 2.21328
5 *95:D *24:11 1.27504
6 *24:8 *24:9 0.147476
7 *24:3 *24:4 0.452382
8 *24:5 *24:6 0.164215
9 *24:7 *24:10 0.356422
10 *24:13 *24:8 6.53681
11 *24:13 *24:7 0.147476
12 *24:12 *24:3 0.40375
13 *24:3 *80:Q 0.8075
*END

*D_NET *56 0.0014412

*CONN
*I *104:Q O *C 23.46 30.46 *L 0 *D XOR2X1
*I *100:D I *C 16.38 25.62 *L 0.00193 *D DFPX3

*CAP
1 *104:Q 0.000744701
2 *100:D 0.000607415
3 *56:2 8.90814e-05

*RES
1 *104:Q *56:2 3.88726
2 *100:D *56:2 2.23839
*END

*D_NET *9 0.0048447

*CONN
*P *9 O *C 39.48 0 *L 0
*I *93:Q O *C 53.48 28.84 *L 0 *D DFCX6

*CAP
1 *9 0.000220588
2 *9:2 0.000202512
3 *9:3 0.000155076
4 *9:4 0.00018856
5 *9:5 8.03105e-05
6 *9:6 0.000995491
7 *9:7 0.000442095
8 *9:8 0.00256007

*RES
1 *9:5 *9:6 2.86177
2 *9:7 *9:8 9.63235
3 *9:2 *9:3 0.407144
4 *9:4 *9:5 0.203463
5 *9:9 *9:7 1.08572
6 *9:6 *9:9 0.203463
7 *9:4 *9:10 0.542859
8 *9:8 *9 0.40375
9 *9:10 *9:2 0.40375
10 *9:2 *93:Q 0.40375
*END

*D_NET *25 0.00359089

*CONN
*I *94:D I *C 58.52 19.88 *L 0.00176 *D DFCX6
*I *79:Q O *C 67.9 38.22 *L 0 *D DFCX1
*I *78:D I *C 60.2 35 *L 0.00193 *D DFCX1

*CAP
1 *94:D 0.000242255
2 *25:3 0.000203355
3 *25:4 0.0001714
4 *25:5 0.000839891
5 *25:6 0.00168265
6 *25:7 0.00045134

*RES
1 *25:6 *25:7 4.89698
2 *25:5 *25:7 1.06898
3 *25:3 *25:4 0.299929
4 *94:D *25:6 0.913132
5 *25:3 *25:5 3.37432
6 *25:7 *78:D 0.40375
7 *25:3 *79:Q 0.40375
*END

*D_NET *57 0.00497536

*CONN
*I *103:B I *C 21.7 49.96 *L 0.00407 *D XOR2X1
*I *73:B1 I *C 18.2 40.04 *L 0.00246 *D AO21X3
*I *72:A I *C 29.4 56.28 *L 0.00134 *D INVXL
*I *71:Q O *C 26.78 46.12 *L 0 *D NOR2XL

*CAP
1 *103:B 0.000137578
2 *73:B1 0.000452588
3 *72:A 0.000386737
4 *57:4 0.000112301
5 *57:5 0.000268101
6 *57:6 0.000207371
7 *57:7 0.000901285
8 *57:8 0.000210899
9 *57:9 0.000625502
10 *57:10 0.000675122
11 *57:11 0.000997879

*RES
1 *57:4 *57:7 3.11256
2 *57:10 *57:11 2.21328
3 *57:12 *57:9 1.5593
4 *57:8 *57:11 1.84103
5 *57:5 *57:6 0.407144
6 *57:13 *57:11 0.921503
7 *57:8 *57:9 0.509382
8 *57:7 *57:8 0.690335
9 *73:B1 *57:10 1.89322
10 *72:A *57:4 1.95685
11 *103:B *57:12 0.348178
12 *57:13 *57:5 0.40375
13 *57:5 *71:Q 0.40375
*END

*D_NET *10 0.00364943

*CONN
*P *10 O *C 38.36 0 *L 0
*I *92:Q O *C 52.92 15.96 *L 0 *D DFCX6

*CAP
1 *10 0.000253216
2 *92:Q 0.000146154
3 *10:2 0.0013731
4 *10:3 0.000425931
5 *10:4 0.000802535
6 *10:5 0.000297371
7 *10:6 0.000351123

*RES
1 *10:3 *10:7 1.06898
2 *10:4 *10:5 0.565368
3 *92:Q *10:2 4.35124
4 *10:8 *10:4 2.49986
5 *10:3 *10:8 0.203463
6 *10:5 *10:6 0.871288
7 *10 *10:6 0.230983
8 *10:7 *10:2 0.40375
*END

*D_NET *26 0.00385757

*CONN
*I *93:D I *C 43.96 29.96 *L 0.00176 *D DFCX6
*I *78:Q O *C 67.9 36.82 *L 0 *D DFCX1
*I *77:D I *C 58.52 29.96 *L 0.00193 *D DFCX1

*CAP
1 *78:Q 0.000163452
2 *26:3 0.000823385
3 *26:4 0.000212862
4 *26:5 0.000146645
5 *26:6 0.00020547
6 *26:7 0.00015874
7 *26:8 0.000750022
8 *26:9 0.00139699

*RES
1 *26:6 *26:7 0.407144
2 *78:Q *26:3 2.54171
3 *26:4 *26:5 0.407144
4 *26:8 *26:9 4.70478
5 *26:3 *26:8 3.51343
6 *26:8 *26:4 0.40375
7 *26:9 *26:6 0.40375
8 *26:4 *77:D 0.40375
9 *26:6 *93:D 0.40375
*END

*D_NET *58 0.000925798

*CONN
*I *85:D I *C 14.84 45.08 *L 0.00193 *D DFCX1
*I *73:Q O *C 17.29 40.54 *L 0 *D AO21X3

*CAP
1 *73:Q 0.000240073
2 *58:2 0.000685725

*RES
1 *73:Q *58:2 1.31338
2 *85:D *58:2 2.25512
*END

*D_NET *11 0.00289541

*CONN
*P *11 O *C 37.24 0 *L 0
*I *91:Q O *C 40.04 18.76 *L 0 *D DFCX6

*CAP
1 *11 0.000323355
2 *11:2 0.00222212
3 *11:3 0.000349937

*RES
1 *91:Q *11:2 5.65138
2 *11 *11:3 0.592889
3 *11:2 *11:3 1.30851
*END

*D_NET *27 0.00541564

*CONN
*I *92:D I *C 43.4 14.84 *L 0.00176 *D DFCX6
*I *77:Q O *C 66.22 28.14 *L 0 *D DFCX1
*I *76:D I *C 52.92 19.88 *L 0.00193 *D DFCX1

*CAP
1 *92:D 0.000362071
2 *77:Q 0.000168495
3 *27:3 0.000356687
4 *27:4 0.00112508
5 *27:5 5.86619e-05
6 *27:6 0.000429689
7 *27:7 0.00114526
8 *27:8 0.0017697

*RES
1 *92:D *27:7 0.929871
2 *77:Q *27:3 0.941125
3 *27:5 *27:6 0.570852
4 *27:9 *27:3 0.147476
5 *27:4 *27:5 0.147476
6 *76:D *27:8 1.87648
7 *27:6 *27:8 4.74662
8 *27:9 *27:4 2.7368
9 *27:7 *27:8 3.47995
*END

*D_NET *59 8.61476e-05

*CONN
*I *72:Q O *C 29.74 56.5 *L 0 *D INVXL
*I *70:A I *C 30.82 56.01 *L 0.0012 *D NOR2XL

*CAP
1 *72:Q 8.61476e-05

*RES
1 *72:Q *70:A 0.321735
*END

*D_NET *12 0.003233

*CONN
*P *12 O *C 36.12 0 *L 0
*I *90:Q O *C 24.92 18.76 *L 0 *D DFCX6

*CAP
1 *12 0.000115852
2 *12:2 0.00311715

*RES
1 *90:Q *12:2 6.19424
2 *12 *12:2 4.05628
*END

*D_NET *28 0.00338242

*CONN
*I *91:D I *C 30.52 19.88 *L 0.00176 *D DFCX6
*I *76:Q O *C 45.22 18.06 *L 0 *D DFCX1
*I *75:D I *C 40.04 24.92 *L 0.00193 *D DFCX1

*CAP
1 *28:3 0.000141739
2 *28:4 0.000159559
3 *28:5 0.000895573
4 *28:6 0.00136709
5 *28:7 0.000818461

*RES
1 *28:6 *28:7 3.47995
2 *75:D *28:5 2.24676
3 *28:5 *28:7 0.772054
4 *28:3 *28:4 0.299929
5 *91:D *28:6 0.929871
6 *28:7 *28:8 1.62858
7 *28:8 *28:3 0.40375
8 *28:3 *76:Q 0.40375
*END

*D_NET *60 0.00151197

*CONN
*I *102:B I *C 38.22 55.32 *L 0.00407 *D XOR2X1
*I *70:Q O *C 31.26 56.2 *L 0 *D NOR2XL

*CAP
1 *102:B 0.000156356
2 *60:2 0.000229041
3 *60:3 0.000949432
4 *60:4 0.000177144

*RES
1 *102:B *60:2 0.732179
2 *60:3 *60:4 0.299929
3 *60:2 *60:3 3.19336
4 *60:3 *70:Q 0.40375
*END

*D_NET *13 0.00326784

*CONN
*P *13 O *C 46.2 0 *L 0
*I *89:Q O *C 37.8 15.96 *L 0 *D DFCX6

*CAP
1 *13 0.000193683
2 *13:2 0.00014792
3 *13:3 0.00172929
4 *13:4 0.000139438
5 *13:5 0.000147168
6 *13:6 0.000910339

*RES
1 *13:2 *13:6 3.15152
2 *13:2 *13:3 4.70478
3 *13:4 *13:5 0.299929
4 *13 *13:3 0.40375
5 *13:6 *13:4 0.40375
6 *13:4 *89:Q 0.40375
*END

*D_NET *29 0.0037596

*CONN
*I *90:D I *C 15.4 19.88 *L 0.00176 *D DFCX6
*I *75:Q O *C 32.34 26.74 *L 0 *D DFCX1
*I *74:D I *C 14.84 14.84 *L 0.00193 *D DFCX1

*CAP
1 *74:D 0.000443627
2 *29:3 0.000153015
3 *29:4 0.000150175
4 *29:5 0.000695672
5 *29:6 0.000267368
6 *29:7 6.26193e-05
7 *29:8 0.000769315
8 *29:9 0.000262713
9 *29:10 0.000886669
10 *29:11 6.84236e-05

*RES
1 *74:D *29:7 1.31977
2 *29:6 *29:7 0.147476
3 *29:9 *29:12 0.542859
4 *29:5 *29:8 2.17144
5 *29:9 *29:13 0.203463
6 *29:3 *29:4 0.299929
7 *29:5 *29:11 2.39423
8 *29:10 *29:11 0.203463
9 *29:6 *29:8 0.718328
10 *29:13 *29:10 2.86177
11 *29:12 *29:3 0.40375
12 *29:3 *75:Q 0.40375
13 *29:8 *90:D 0.40375
*END

*D_NET *61 0.00124694

*CONN
*I *103:Q O *C 21.22 50.62 *L 0 *D XOR2X1
*I *99:D I *C 15.26 55.86 *L 0.00193 *D DFPX3

*CAP
1 *103:Q 0.000568864
2 *61:2 0.000678077

*RES
1 *103:Q *61:2 3.24379
2 *99:D *61:2 2.43608
*END

*D_NET *14 0.0274012

*CONN
*I *106:Q O *C 42.7 55.3 *L 0 *D CLKBUFX2
*I *100:SN I *C 22.21 25.47 *L 0.00406 *D DFPX3
*I *99:SN I *C 21.09 55.71 *L 0.00406 *D DFPX3
*I *98:RN I *C 52.92 38.36 *L 0.00441 *D DFCX6
*I *97:RN I *C 52.92 36.68 *L 0.00441 *D DFCX6
*I *96:RN I *C 52.92 48.44 *L 0.00441 *D DFCX6
*I *95:RN I *C 65.8 16.52 *L 0.00441 *D DFCX6
*I *94:RN I *C 65.8 18.2 *L 0.00441 *D DFCX6
*I *93:RN I *C 51.24 28.28 *L 0.00441 *D DFCX6
*I *92:RN I *C 50.68 16.52 *L 0.00441 *D DFCX6
*I *91:RN I *C 37.8 18.2 *L 0.00441 *D DFCX6
*I *90:RN I *C 22.68 18.2 *L 0.00441 *D DFCX6
*I *89:RN I *C 35.56 16.52 *L 0.00441 *D DFCX6
*I *86:RN I *C 21.7 35.7 *L 0.00457 *D DFCX1
*I *85:RN I *C 21.7 45.78 *L 0.00457 *D DFCX1
*I *84:RN I *C 33.18 49.42 *L 0.00457 *D DFCX1
*I *83:RN I *C 37.94 45.78 *L 0.00457 *D DFCX1
*I *82:RN I *C 66.5 55.86 *L 0.00457 *D DFCX1
*I *81:RN I *C 67.06 49.42 *L 0.00457 *D DFCX1
*I *80:RN I *C 66.5 45.78 *L 0.00457 *D DFCX1
*I *79:RN I *C 67.06 39.34 *L 0.00457 *D DFCX1
*I *78:RN I *C 67.06 35.7 *L 0.00457 *D DFCX1
*I *77:RN I *C 65.38 29.26 *L 0.00457 *D DFCX1
*I *76:RN I *C 46.06 19.18 *L 0.00457 *D DFCX1
*I *75:RN I *C 33.18 25.62 *L 0.00457 *D DFCX1
*I *74:RN I *C 21.7 15.54 *L 0.00457 *D DFCX1

*CAP
1 *106:Q 0.000988131
2 *95:RN 0.000415945
3 *92:RN 0.00118625
4 *89:RN 0.000197093
5 *86:RN 0.000125818
6 *84:RN 0.000266868
7 *76:RN 0.000802144
8 *74:RN 0.000367087
9 *14:26 9.0312e-05
10 *14:27 0.000332115
11 *14:28 0.0011227
12 *14:29 0.000813299
13 *14:30 0.000609909
14 *14:31 8.44854e-05
15 *14:32 0.000596295
16 *14:33 0.000291492
17 *14:34 6.86368e-05
18 *14:35 0.000391112
19 *14:36 0.000141461
20 *14:37 0.000146747
21 *14:38 0.000868718
22 *14:39 9.98491e-05
23 *14:40 0.000145049
24 *14:41 0.000151431
25 *14:42 0.000731359
26 *14:43 0.000691886
27 *14:44 6.57351e-05
28 *14:45 8.91711e-05
29 *14:46 6.27009e-05
30 *14:47 0.00158302
31 *14:48 0.00087916
32 *14:49 0.00056979
33 *14:50 0.000679393
34 *14:51 0.0023053
35 *14:52 0.000171756
36 *14:53 0.000867281
37 *14:54 0.00072185
38 *14:55 0.00116996
39 *14:56 0.00100732
40 *14:57 0.000886629
41 *14:58 0.000811134
42 *14:59 0.000680875
43 *14:60 0.00123148
44 *14:61 0.000476949
45 *14:62 0.000953911
46 *14:63 0.000461572

*RES
1 *14:26 *14:54 2.57519
2 *14:34 *14:35 0.899281
3 *14:52 *14:55 0.509382
4 *14:42 *14:44 0.147476
5 *92:RN *14:35 3.26552
6 *83:RN *14:38 0.988453
7 *14:34 *14:56 0.147476
8 *14:45 *14:46 0.147476
9 *14:61 *14:62 2.35239
10 *82:RN *14:28 2.82598
11 *14:37 *14:38 1.80405
12 *89:RN *14:27 0.669913
13 *14:57 *14:62 2.75065
14 *14:29 *14:49 1.985
15 *14:33 *14:52 0.523379
16 *14:47 *14:59 4.02281
17 *78:RN *14:30 0.988453
18 *76:RN *14:36 2.79798
19 *14:33 *14:56 2.7368
20 *14:51 *14:63 3.6609
21 *14:42 *14:64 1.83204
22 *14:60 *14:61 1.80953
23 *14:51 *14:58 2.35239
24 *14:28 *14:49 1.26667
25 *14:48 *14:65 0.147476
26 *14:44 *14:51 3.24681
27 *106:Q *14:26 5.81767
28 *14:27 *14:39 0.941125
29 *99:SN *14:47 2.25512
30 *14:40 *14:41 0.299929
31 *14:32 *14:50 1.23319
32 *79:RN *14:29 0.988453
33 *14:54 *14:55 3.25715
34 *14:66 *14:60 4.72151
35 *14:47 *14:48 1.80405
36 *14:32 *14:53 2.35239
37 *14:43 *14:65 1.47013
38 *84:RN *14:59 1.75411
39 *14:37 *14:59 2.0658
40 *74:RN *14:46 1.5593
41 *14:45 *14:58 0.17547
42 *14:31 *14:50 2.01848
43 *81:RN *14:28 0.988453
44 *14:62 *14:63 1.62858
45 *14:64 *14:43 0.328429
46 *14:30 *14:31 0.328429
47 *14:39 *14:57 0.328429
48 *86:RN *14:44 0.988453
49 *14:29 *14:30 1.25633
50 *95:RN *14:53 0.929871
51 *14:66 *14:32 0.40375
52 *14:60 *14:35 0.40375
53 *14:61 *14:36 0.40375
54 *14:63 *14:40 0.40375
55 *14:49 *80:RN 0.8075
56 *14:50 *77:RN 0.8075
57 *14:40 *75:RN 0.8075
58 *14:51 *100:SN 0.8075
59 *14:65 *85:RN 0.8075
60 *14:52 *97:RN 0.40375
61 *14:53 *94:RN 0.40375
62 *14:54 *96:RN 0.40375
63 *14:55 *98:RN 0.40375
64 *14:56 *93:RN 0.40375
65 *14:57 *91:RN 0.40375
66 *14:58 *90:RN 0.40375
*END

*D_NET *30 0.00114173

*CONN
*I *89:D I *C 28.28 14.84 *L 0.00176 *D DFCX6
*I *74:Q O *C 22.54 16.66 *L 0 *D DFCX1

*CAP
1 *74:Q 0.000173616
2 *30:2 0.000294444
3 *30:3 0.00067367

*RES
1 *74:Q *30:3 0.913132
2 *30:3 *30:4 1.68716
3 *30:4 *30:2 0.40375
4 *30:2 *89:D 0.40375
*END

*D_NET *62 0.000808796

*CONN
*I *102:Q O *C 38.7 54.66 *L 0 *D XOR2X1
*I *84:D I *C 40.04 50.12 *L 0.00193 *D DFCX1

*CAP
1 *102:Q 0.000158167
2 *84:D 0.00053491
3 *62:2 0.000115719

*RES
1 *102:Q *62:2 0.669913
2 *84:D *62:2 2.25512
*END

*D_NET *15 0.0219463

*CONN
*I *101:Q O *C 33.81 54.74 *L 0 *D CLKBUFX6
*I *100:CP I *C 14.28 24.36 *L 0.00199 *D DFPX3
*I *99:CP I *C 13.16 54.6 *L 0.00199 *D DFPX3
*I *86:CP I *C 12.6 35 *L 0.00195 *D DFCX1
*I *85:CP I *C 12.6 45.08 *L 0.00195 *D DFCX1
*I *84:CP I *C 42.28 50.12 *L 0.00195 *D DFCX1
*I *83:CP I *C 28.84 45.08 *L 0.00195 *D DFCX1
*I *82:CP I *C 57.4 55.16 *L 0.00195 *D DFCX1
*I *81:CP I *C 57.96 50.12 *L 0.00195 *D DFCX1
*I *80:CP I *C 57.4 45.08 *L 0.00195 *D DFCX1
*I *79:CP I *C 57.96 40.04 *L 0.00195 *D DFCX1
*I *78:CP I *C 57.96 35 *L 0.00195 *D DFCX1
*I *77:CP I *C 56.28 29.96 *L 0.00195 *D DFCX1
*I *76:CP I *C 55.16 19.88 *L 0.00195 *D DFCX1
*I *75:CP I *C 42.28 24.92 *L 0.00195 *D DFCX1
*I *74:CP I *C 12.6 14.84 *L 0.00195 *D DFCX1

*CAP
1 *100:CP 0.000152957
2 *99:CP 0.000145479
3 *82:CP 0.000119921
4 *81:CP 0.000103147
5 *80:CP 0.000117305
6 *79:CP 0.000100107
7 *78:CP 0.00048124
8 *77:CP 0.00112222
9 *75:CP 0.000116825
10 *74:CP 0.00110329
11 *15:16 8.8445e-05
12 *15:17 0.000132658
13 *15:18 0.000748587
14 *15:19 0.000607894
15 *15:20 0.000571049
16 *15:21 0.00016053
17 *15:22 0.000204643
18 *15:23 0.000208983
19 *15:24 0.000146168
20 *15:25 0.000149187
21 *15:26 0.000117598
22 *15:27 0.000566715
23 *15:28 0.00155467
24 *15:29 0.00156684
25 *15:30 0.000382473
26 *15:31 0.000100714
27 *15:32 0.000136
28 *15:33 0.000198013
29 *15:34 0.000190226
30 *15:35 6.2347e-05
31 *15:36 0.0023259
32 *15:37 0.00104362
33 *15:38 0.0041334
34 *15:39 0.000398878
35 *15:40 0.00258824

*RES
1 *15:22 *15:23 0.299929
2 *77:CP *15:21 3.62742
3 *15:26 *15:27 0.118976
4 *15:18 *15:41 0.345168
5 *15:34 *15:35 0.147476
6 *15:17 *15:42 0.356422
7 *15:43 *15:17 0.147476
8 *15:44 *15:40 7.6335
9 *15:29 *15:45 3.15152
10 *15:20 *15:21 1.32316
11 *78:CP *15:43 1.66494
12 *15:30 *15:31 0.328429
13 *15:21 *15:42 0.342426
14 *99:CP *15:34 0.941125
15 *15:37 *15:38 3.40463
16 *15:24 *15:25 0.299929
17 *75:CP *15:26 0.551226
18 *15:32 *15:33 0.299929
19 *15:29 *15:30 0.899281
20 *80:CP *15:46 0.669913
21 *15:19 *15:20 0.299929
22 *15:36 *15:37 3.22368
23 *15:16 *15:18 2.02684
24 *15:28 *15:47 4.58241
25 *101:Q *15:29 1.85137
26 *15:27 *15:28 1.29517
27 *15:36 *15:39 5.66812
28 *15:38 *15:48 10.0277
29 *15:39 *15:40 1.24993
30 *82:CP *15:16 0.669913
31 *15:18 *15:19 1.5951
32 *74:CP *15:38 3.44647
33 *15:35 *15:36 2.52786
34 *100:CP *15:38 1.3954
35 *15:31 *15:40 1.12208
36 *15:44 *15:19 0.40375
37 *15:45 *15:24 0.40375
38 *15:39 *15:32 0.40375
39 *15:48 *15:26 0.40375
40 *15:47 *15:22 0.40375
41 *15:22 *76:CP 0.8075
42 *15:24 *84:CP 0.8075
43 *15:32 *83:CP 0.40375
44 *15:36 *85:CP 0.40375
45 *15:37 *86:CP 0.40375
46 *15:41 *81:CP 0.40375
47 *15:42 *79:CP 0.40375
48 *15:19 *15:46 0.40375
*END

*D_NET *63 0.00197359

*CONN
*I *105:B I *C 41.72 45.64 *L 0.00779 *D NOR2X6
*I *88:Q O *C 35.11 34.1 *L 0 *D NAND3X1

*CAP
1 *88:Q 0.000588618
2 *63:2 0.00138497

*RES
1 *88:Q *63:2 2.92206
2 *105:B *63:2 4.28745
*END

*D_NET *16 0.0029948

*CONN
*I *102:A I *C 36.68 55.16 *L 0.00444 *D XOR2X1
*I *84:Q O *C 32.34 48.3 *L 0 *D DFCX1
*I *69:A I *C 36.38 39.19 *L 0.0012 *D NOR2XL

*CAP
1 *69:A 0.0011512
2 *16:3 0.00100635
3 *16:4 0.000244115
4 *16:5 0.000166473
5 *16:6 0.000426659

*RES
1 *102:A *16:3 2.57518
2 *16:4 *16:5 0.299929
3 *16:3 *16:6 1.88485
4 *69:A *16:3 3.299
5 *16:6 *16:4 0.40375
6 *16:4 *84:Q 0.40375
*END

*D_NET *64 0.014819

*CONN
*I *105:Q O *C 42.46 46.76 *L 0 *D NOR2X6
*I *98:CP I *C 42.84 40.6 *L 0.0019 *D DFCX6
*I *97:CP I *C 42.84 34.44 *L 0.0019 *D DFCX6
*I *96:CP I *C 42.84 50.68 *L 0.0019 *D DFCX6
*I *95:CP I *C 55.72 14.28 *L 0.0019 *D DFCX6
*I *94:CP I *C 55.72 20.44 *L 0.0019 *D DFCX6
*I *93:CP I *C 41.16 30.52 *L 0.0019 *D DFCX6
*I *92:CP I *C 40.6 14.28 *L 0.0019 *D DFCX6
*I *91:CP I *C 27.72 20.44 *L 0.0019 *D DFCX6
*I *90:CP I *C 12.6 20.44 *L 0.0019 *D DFCX6
*I *89:CP I *C 25.48 14.28 *L 0.0019 *D DFCX6

*CAP
1 *98:CP 0.000260979
2 *97:CP 0.000161444
3 *95:CP 0.000643329
4 *94:CP 0.000373482
5 *92:CP 0.000578887
6 *90:CP 0.000128423
7 *89:CP 0.000761369
8 *64:11 8.31696e-05
9 *64:12 0.000579567
10 *64:13 0.000459509
11 *64:14 0.000286382
12 *64:15 0.00264535
13 *64:16 0.000373381
14 *64:17 0.000396206
15 *64:18 0.000628151
16 *64:19 0.000565682
17 *64:20 5.82407e-05
18 *64:21 0.000110931
19 *64:22 0.000140201
20 *64:23 0.000331903
21 *64:24 6.26065e-05
22 *64:25 8.81755e-05
23 *64:26 0.000149008
24 *64:27 0.000176974
25 *64:28 0.000478006
26 *64:29 0.00034439
27 *64:30 7.16388e-05
28 *64:31 0.000126077
29 *64:32 9.78932e-05
30 *64:33 0.000183795
31 *64:34 0.00127986
32 *64:35 0.00123916
33 *64:36 0.000183633
34 *64:37 0.000771213

*RES
1 *64:38 *64:37 2.89525
2 *64:17 *64:29 0.690335
3 *64:12 *64:33 1.84589
4 *64:39 *64:12 0.328429
5 *89:CP *64:24 1.48398
6 *105:Q *64:13 0.929871
7 *64:17 *64:32 1.32525
8 *64:19 *64:20 0.147476
9 *64:16 *64:19 1.26119
10 *64:23 *64:36 1.30303
11 *64:15 *64:16 0.690335
12 *64:15 *64:28 2.49986
13 *64:27 *64:28 1.23319
14 *64:16 *64:35 4.7801
15 *90:CP *64:40 0.669913
16 *64:35 *64:36 0.542859
17 *64:15 *64:33 4.74662
18 *95:CP *64:39 1.66494
19 *64:23 *64:24 0.147476
20 *98:CP *64:29 1.71713
21 *64:30 *64:31 0.299929
22 *64:11 *64:33 0.765656
23 *64:41 *64:27 0.356422
24 *64:18 *64:29 1.62309
25 *64:41 *64:18 0.147476
26 *64:21 *64:22 0.299929
27 *64:34 *64:36 4.70478
28 *64:25 *64:26 0.299929
29 *94:CP *64:11 1.12756
30 *92:CP *64:20 1.12208
31 *97:CP *64:27 1.3954
32 *64:38 *64:30 0.40375
33 *64:37 *64:32 0.40375
34 *64:30 *64:14 0.40375
35 *64:32 *64:13 0.40375
36 *64:34 *64:25 0.40375
37 *64:35 *64:21 0.40375
38 *64:14 *96:CP 0.40375
39 *64:28 *93:CP 0.40375
40 *64:21 *91:CP 0.40375
41 *64:25 *64:40 0.40375
*END

