*SPEF "IEEE 1481-1998"
*DESIGN "nnspc"
*DATE "Mon Aug 28 16:36:04 2017"
*VENDOR "Cadence Design Systems, Inc."
*PROGRAM "Innovus"
*VERSION "15.28-s017_1"
*DESIGN_FLOW "PIN_CAP NONE" "NAME_SCOPE LOCAL"
*DIVIDER /
*DELIMITER :
*BUS_DELIMITER []
*T_UNIT 1 NS
*C_UNIT 1 PF
*R_UNIT 1 OHM
*L_UNIT 1 HENRY

// MMMC spef file for corner 'ams_rc_corner_maxCaR'

*NAME_MAP

*1 Cfg_in
*2 Clk
*3 Resetn
*4 NSEL[4]
*5 NSEL[3]
*6 NSEL[2]
*7 NSEL[1]
*8 NSEL[0]
*9 DAC[3]
*10 DAC[2]
*11 DAC[1]
*12 DAC[0]
*13 RE
*14 FE_OFN0_Resetn
*15 CTS_4
*16 count[4]
*17 count[3]
*18 count[2]
*19 count[1]
*20 count[0]
*21 out[9]
*22 out[8]
*23 out[7]
*24 out[6]
*25 out[5]
*26 out[4]
*27 out[3]
*28 out[2]
*29 out[1]
*30 out[0]
*31 UNCONNECTED
*32 UNCONNECTED0
*33 UNCONNECTED1
*34 UNCONNECTED2
*35 UNCONNECTED3
*36 UNCONNECTED4
*37 UNCONNECTED5
*38 UNCONNECTED6
*39 UNCONNECTED7
*40 UNCONNECTED8
*41 UNCONNECTED9
*42 UNCONNECTED10
*43 UNCONNECTED11
*44 UNCONNECTED12
*45 UNCONNECTED13
*46 UNCONNECTED14
*47 UNCONNECTED15
*48 UNCONNECTED16
*49 UNCONNECTED17
*50 UNCONNECTED18
*51 UNCONNECTED19
*52 UNCONNECTED20
*53 UNCONNECTED21
*54 UNCONNECTED22
*55 n_0
*56 n_1
*57 n_2
*58 n_3
*59 n_4
*60 n_5
*61 n_6
*62 n_7
*63 n_8
*64 n_9
*65 n_10
*66 n_12
*67 n_13
*68 g33
*69 g34
*70 g140
*71 g144
*72 g141
*73 g143
*74 out_reg\[0\]
*75 out_reg\[1\]
*76 out_reg\[2\]
*77 out_reg\[3\]
*78 out_reg\[4\]
*79 out_reg\[5\]
*80 out_reg\[6\]
*81 out_reg\[7\]
*82 out_reg\[8\]
*83 out_reg\[9\]
*84 count_reg\[4\]
*85 count_reg\[2\]
*86 count_reg\[0\]
*87 g147
*88 g83
*89 RE_reg
*90 DAC_reg\[0\]
*91 DAC_reg\[1\]
*92 DAC_reg\[2\]
*93 DAC_reg\[3\]
*94 NSEL_reg\[0\]
*95 NSEL_reg\[1\]
*96 NSEL_reg\[3\]
*97 NSEL_reg\[2\]
*98 NSEL_reg\[4\]
*99 count_reg\[3\]
*100 count_reg\[1\]
*101 CTS_ccl_BUF_Clk_G0_L1_1
*102 g136
*103 g138
*104 g145
*105 g81
*106 FE_OFC0_Resetn


*PORTS

*1 I *C 40.6 70
*2 I *C 41.16 70
*3 I *C 41.72 70
*4 O *C 45.08 0
*5 O *C 43.96 0
*6 O *C 42.84 0
*7 O *C 41.72 0
*8 O *C 40.6 0
*9 O *C 39.48 0
*10 O *C 38.36 0
*11 O *C 37.24 0
*12 O *C 36.12 0
*13 O *C 46.2 0


*D_NET *1 0.00431396

*CONN
*P *1 I *C 40.6 70 *L 0
*I *83:D I *C 31.08 45.08 *L 0.00193 *D DFCX1

*CAP
1 *1 0.000208206
2 *83:D 0.00109714
3 *1:2 0.000752699
4 *1:3 0.0019898
5 *1:4 6.84958e-05
6 *1:5 0.000129065
7 *1:6 6.85524e-05

*RES
1 *1:5 *1:6 0.313064
2 *83:D *1:6 10.6701
3 *1:2 *1:3 11.1281
4 *1:4 *1:5 0.431912
5 *1:3 *1:4 0.313064
6 *1 *1:2 11.4144
*END

*D_NET *17 0.00466913

*CONN
*I *103:A I *C 23.24 50.12 *L 0.00444 *D XOR2X1
*I *99:Q O *C 23.8 55.72 *L 0 *D DFPX3
*I *70:B I *C 31.64 56.28 *L 0.00142 *D NOR2XL
*I *69:B I *C 35.56 38.92 *L 0.00142 *D NOR2XL

*CAP
1 *103:A 0.000343021
2 *69:B 0.000661428
3 *17:4 0.00192605
4 *17:5 0.00029239
5 *17:6 0.000492453
6 *17:7 0.000190667
7 *17:8 0.000283599
8 *17:9 6.81804e-05
9 *17:10 0.000182654
10 *17:11 0.000228686

*RES
1 *17:7 *17:10 0.82768
2 *17:6 *17:7 0.348596
3 *17:6 *17:11 9.10965
4 *17:4 *17:11 33.8208
5 *17:8 *17:10 1.52487
6 *103:A *17:9 7.24844
7 *17:12 *17:5 0.707756
8 *17:8 *17:9 0.313064
9 *69:B *17:4 6.08237
10 *17:12 *17:11 12.9126
11 *17:12 *70:B 11.305
12 *17:10 *99:Q 5.6525
*END

*D_NET *65 0.00341905

*CONN
*I *104:B I *C 23.94 29.8 *L 0.00407 *D XOR2X1
*I *88:C I *C 35 34.44 *L 0.0018 *D NAND3X1
*I *86:QN O *C 24.73 34.7 *L 0 *D DFCX1
*I *86:D I *C 14.84 35 *L 0.00193 *D DFCX1

*CAP
1 *104:B 9.83245e-05
2 *65:4 0.00018003
3 *65:5 0.000151108
4 *65:6 0.000190035
5 *65:7 0.00027211
6 *65:8 6.87071e-05
7 *65:9 0.000220644
8 *65:10 7.20343e-05
9 *65:11 0.000392715
10 *65:12 0.000227753
11 *65:13 0.00068769
12 *65:14 0.000857895

*RES
1 *65:7 *65:15 1.27231
2 *65:9 *65:10 0.48016
3 *65:4 *65:5 0.636692
4 *65:6 *65:7 0.48016
5 *65:12 *65:16 0.431912
6 *65:13 *65:14 6.91431
7 *65:16 *65:13 5.76192
8 *65:8 *65:11 1.52487
9 *65:12 *65:17 1.15238
10 *65:15 *65:8 0.313064
11 *65:17 *65:4 5.6525
12 *65:13 *65:6 5.6525
13 *65:14 *65:9 5.6525
14 *65:4 *88:C 5.6525
15 *65:11 *104:B 5.6525
16 *65:6 *86:QN 5.6525
17 *65:9 *86:D 5.6525
*END

*D_NET *2 0.00491082

*CONN
*P *2 I *C 41.16 70 *L 0
*I *105:A I *C 44.52 45.08 *L 0.00674 *D NOR2X6
*I *101:A I *C 35 55.16 *L 0.00336 *D CLKBUFX6

*CAP
1 *2 0.000414365
2 *105:A 0.00120315
3 *2:3 0.000140752
4 *2:4 0.00025829
5 *2:5 0.000164694
6 *2:6 0.00210017
7 *2:7 0.000629399

*RES
1 *2:3 *2:6 8.02833
2 *105:A *2:3 12.5668
3 *2:8 *2:6 15.2557
4 *2:4 *2:5 0.636692
5 *2:6 *2:7 4.22541
6 *2 *2:8 5.6525
7 *2:7 *2:4 5.6525
8 *2:4 *101:A 5.6525
*END

*D_NET *18 0.00468693

*CONN
*I *85:Q O *C 22.54 46.9 *L 0 *D DFCX1
*I *73:A2 I *C 19.69 39.34 *L 0.00208 *D AO21X3
*I *71:B I *C 27.16 46.2 *L 0.00142 *D NOR2XL
*I *68:A I *C 33.58 35.85 *L 0.0012 *D NOR2XL

*CAP
1 *73:A2 0.00107064
2 *68:A 0.00139706
3 *18:4 0.000148244
4 *18:5 0.000191446
5 *18:6 7.75072e-05
6 *18:7 0.00015145
7 *18:8 0.000170327
8 *18:9 0.000472353
9 *18:10 0.000396147
10 *18:11 0.000611761

*RES
1 *18:7 *18:8 0.636692
2 *18:4 *18:12 6.48018
3 *18:12 *18:11 4.60954
4 *18:9 *18:10 7.95727
5 *73:A2 *18:9 10.5751
6 *18:5 *18:6 0.48016
7 *68:A *18:4 12.6023
8 *18:10 *18:11 3.07303
9 *18:10 *18:7 5.6525
10 *18:11 *18:5 5.6525
11 *18:7 *85:Q 5.6525
12 *18:5 *71:B 5.6525
*END

*D_NET *66 0.000856802

*CONN
*I *88:A I *C 35.75 35.14 *L 0.00162 *D NAND3X1
*I *69:Q O *C 35.94 39 *L 0 *D NOR2XL

*CAP
1 *88:A 0.000856802

*RES
1 *88:A *69:Q 14.7977
*END

*D_NET *3 0.00244455

*CONN
*P *3 I *C 41.72 70 *L 0
*I *106:A I *C 42.28 55.16 *L 0.00224 *D CLKBUFX2

*CAP
1 *3 0.000254108
2 *106:A 0.000406629
3 *3:2 0.000114375
4 *3:3 0.000292304
5 *3:4 0.00131058
6 *3:5 6.65586e-05

*RES
1 *3:4 *3:5 0.313064
2 *106:A *3:5 6.82878
3 *3:6 *3:4 7.34622
4 *3:2 *3:3 1.14074
5 *3:6 *3:3 0.313064
6 *3 *3:2 5.6525
*END

*D_NET *19 0.00389346

*CONN
*I *104:A I *C 25.48 29.96 *L 0.00444 *D XOR2X1
*I *100:Q O *C 24.92 25.48 *L 0 *D DFPX3
*I *87:A I *C 22.12 40.04 *L 0.00208 *D OR2X3
*I *68:B I *C 32.76 36.12 *L 0.00142 *D NOR2XL

*CAP
1 *104:A 0.000173306
2 *100:Q 0.000582751
3 *87:A 0.000174313
4 *68:B 0.000594376
5 *19:4 0.000102506
6 *19:5 0.000626749
7 *19:6 0.000751558
8 *19:7 0.000263373
9 *19:8 6.44379e-05
10 *19:9 6.47014e-05
11 *19:10 0.000495389

*RES
1 *19:6 *19:10 4.98203
2 *19:7 *19:8 0.372488
3 *104:A *19:7 6.40912
4 *19:4 *19:10 9.03859
5 *19:4 *19:5 4.93957
6 *19:6 *19:7 1.08132
7 *68:B *19:10 11.186
8 *100:Q *19:9 7.59703
9 *19:8 *19:9 0.313064
10 *87:A *19:5 1.12599
*END

*D_NET *67 0.00078849

*CONN
*I *88:B I *C 35.39 36.26 *L 0.00168 *D NAND3X1
*I *68:Q O *C 33.14 36.04 *L 0 *D NOR2XL

*CAP
1 *88:B 0.00017899
2 *68:Q 0.00024772
3 *67:2 0.000302154
4 *67:3 5.96263e-05

*RES
1 *68:Q *67:2 1.69163
2 *88:B *67:3 5.96556
3 *67:2 *67:3 6.40912
*END

*D_NET *4 0.00531058

*CONN
*P *4 O *C 45.08 0 *L 0
*I *98:Q O *C 55.16 38.92 *L 0 *D DFCX6

*CAP
1 *4 0.000197648
2 *4:2 0.000358307
3 *4:3 0.00113168
4 *4:4 0.000221787
5 *4:5 0.00311522
6 *4:6 5.83926e-05
7 *4:7 0.000227546

*RES
1 *98:Q *4:2 6.42076
2 *4:8 *4:5 23.4796
3 *4:2 *4:3 12.6379
4 *4:8 *4:4 0.313064
5 *4:5 *4:6 0.313064
6 *4:3 *4:4 6.79324
7 *4:6 *4:7 1.21181
8 *4:7 *4 5.6525
*END

*D_NET *20 0.000862871

*CONN
*I *87:B I *C 21.56 40.04 *L 0.00238 *D OR2X3
*I *86:Q O *C 22.54 36.82 *L 0 *D DFCX1

*CAP
1 *87:B 0.000209717
2 *20:2 0.000653154

*RES
1 *87:B *20:2 7.94563
2 *86:Q *20:2 12.0733
*END

*D_NET *5 0.0071228

*CONN
*P *5 O *C 43.96 0 *L 0
*I *96:Q O *C 55.16 49 *L 0 *D DFCX6

*CAP
1 *5 0.000206124
2 *5:2 0.000409563
3 *5:3 0.000337258
4 *5:4 6.81804e-05
5 *5:5 0.00074818
6 *5:6 0.000175358
7 *5:7 8.6556e-05
8 *5:8 0.000789163
9 *5:9 0.000207514
10 *5:10 0.000107238
11 *5:11 0.00398767

*RES
1 *5:8 *5:12 0.431912
2 *5:2 *5:13 1.14074
3 *5:2 *5:6 6.80488
4 *5:12 *5:9 1.15238
5 *5:3 *5:4 0.313064
6 *5:6 *5:7 0.431912
7 *5:9 *5:10 6.0011
8 *5:13 *5:5 0.313064
9 *5:7 *5:8 4.9226
10 *96:Q *5:3 6.86431
11 *5:4 *5:5 3.88907
12 *5:10 *5:11 27.3325
13 *5:11 *5 5.6525
*END

*D_NET *21 0.00539075

*CONN
*I *98:D I *C 45.64 40.04 *L 0.00176 *D DFCX6
*I *83:Q O *C 38.78 46.9 *L 0 *D DFCX1
*I *82:D I *C 59.64 55.16 *L 0.00193 *D DFCX1

*CAP
1 *98:D 0.000220768
2 *83:Q 0.000168252
3 *21:3 0.000446247
4 *21:4 6.95203e-05
5 *21:5 0.00161103
6 *21:6 0.00140268
7 *21:7 0.00147225

*RES
1 *21:6 *21:7 9.87791
2 *83:Q *21:6 9.42272
3 *82:D *21:3 7.63257
4 *21:5 *21:7 14.9426
5 *21:3 *21:4 0.313064
6 *98:D *21:7 12.0733
7 *21:4 *21:5 7.67092
*END

*D_NET *6 0.00562337

*CONN
*P *6 O *C 42.84 0 *L 0
*I *97:Q O *C 55.16 36.12 *L 0 *D DFCX6

*CAP
1 *6 0.000202249
2 *6:2 0.0004017
3 *6:3 0.0013196
4 *6:4 0.00018207
5 *6:5 4.82268e-05
6 *6:6 0.00103909
7 *6:7 0.00243043

*RES
1 *6:3 *6:4 6.79324
2 *6:5 *6:6 7.34622
3 *6:8 *6:2 0.636692
4 *6:3 *6:9 8.52188
5 *6:10 *6:6 0.313064
6 *6:10 *6:7 15.8087
7 *6:4 *6:5 0.313064
8 *6:7 *6 5.6525
9 *6:9 *6:2 5.6525
10 *6:2 *97:Q 5.6525
*END

*D_NET *22 0.00376366

*CONN
*I *96:D I *C 45.64 50.12 *L 0.00176 *D DFCX6
*I *82:Q O *C 67.34 56.98 *L 0 *D DFCX1
*I *81:D I *C 60.2 50.12 *L 0.00193 *D DFCX1

*CAP
1 *96:D 0.000200732
2 *82:Q 0.000166932
3 *81:D 0.000200741
4 *22:3 0.000931778
5 *22:4 0.00153808
6 *22:5 0.000725402

*RES
1 *81:D *22:5 12.0733
2 *96:D *22:4 6.42076
3 *82:Q *22:3 9.49378
4 *22:4 *22:5 15.6398
5 *22:3 *22:5 10.6462
*END

*D_NET *7 0.00452196

*CONN
*P *7 O *C 41.72 0 *L 0
*I *95:Q O *C 68.04 15.96 *L 0 *D DFCX6

*CAP
1 *7 0.000268348
2 *95:Q 0.000157808
3 *7:2 0.00165398
4 *7:3 0.00118436
5 *7:4 6.47817e-05
6 *7:5 0.000508999
7 *7:6 0.000683679

*RES
1 *7:3 *7:7 9.56767
2 *7:5 *7:8 0.431912
3 *95:Q *7:2 14.8005
4 *7:4 *7:5 3.77022
5 *7:3 *7:4 0.431912
6 *7:8 *7:6 4.15435
7 *7 *7:6 0.490333
8 *7:7 *7:2 5.6525
*END

*D_NET *23 0.00513949

*CONN
*I *97:D I *C 45.64 35 *L 0.00176 *D DFCX6
*I *81:Q O *C 67.9 48.3 *L 0 *D DFCX1
*I *80:D I *C 59.64 45.08 *L 0.00193 *D DFCX1

*CAP
1 *97:D 0.000723327
2 *81:Q 0.000167223
3 *23:3 0.000739569
4 *23:4 0.000297027
5 *23:5 0.000686485
6 *23:6 0.000119575
7 *23:7 0.000192401
8 *23:8 7.39068e-05
9 *23:9 0.000938314
10 *23:10 0.00120166

*RES
1 *23:4 *23:11 6.80488
2 *23:3 *23:10 11.4855
3 *23:9 *23:11 0.431912
4 *23:5 *23:6 0.697192
5 *80:D *23:10 12.0733
6 *23:4 *23:5 3.44551
7 *23:8 *23:9 6.07499
8 *23:7 *23:8 0.431912
9 *81:Q *23:3 8.65446
10 *97:D *23:6 8.36529
11 *23:7 *23:10 1.46545
*END

*D_NET *55 0.00212865

*CONN
*I *87:Q O *C 20.63 38.36 *L 0 *D OR2X3
*I *73:A1 I *C 18.76 40.04 *L 0.00208 *D AO21X3
*I *71:A I *C 26.34 45.93 *L 0.0012 *D NOR2XL

*CAP
1 *73:A1 0.000242784
2 *55:3 0.000890062
3 *55:4 0.000259327
4 *55:5 0.000180546
5 *55:6 0.000555931

*RES
1 *73:A1 *87:Q 1.64653
2 *71:A *55:3 9.10965
3 *55:4 *55:5 0.864288
4 *55:3 *55:6 9.56485
5 *55:6 *55:4 5.6525
6 *55:4 *87:Q 5.6525
*END

*D_NET *8 0.00602684

*CONN
*P *8 O *C 40.6 0 *L 0
*I *94:Q O *C 68.04 18.76 *L 0 *D DFCX6

*CAP
1 *8 0.000332511
2 *94:Q 0.000355082
3 *8:2 0.000131447
4 *8:3 0.00305381
5 *8:4 0.00215399

*RES
1 *94:Q *8:2 6.73382
2 *8:3 *8:4 19.7942
3 *8:2 *8:3 24.1617
4 *8:4 *8 5.6525
*END

*D_NET *24 0.00633714

*CONN
*I *95:D I *C 58.52 14.84 *L 0.00176 *D DFCX6
*I *80:Q O *C 67.34 46.9 *L 0 *D DFCX1
*I *79:D I *C 60.2 40.04 *L 0.00193 *D DFCX1

*CAP
1 *95:D 0.000409215
2 *79:D 0.000204373
3 *24:3 0.000249261
4 *24:4 0.000284241
5 *24:5 0.000536304
6 *24:6 0.000189766
7 *24:7 0.000206545
8 *24:8 0.00253015
9 *24:9 6.81296e-05
10 *24:10 0.000926862
11 *24:11 0.000662484
12 *24:12 6.98109e-05

*RES
1 *24:9 *24:11 2.73668
2 *79:D *24:10 6.34969
3 *24:6 *24:10 4.65732
4 *24:5 *24:12 9.49378
5 *95:D *24:11 7.50208
6 *24:8 *24:9 0.313064
7 *24:3 *24:4 0.96032
8 *24:5 *24:6 0.348596
9 *24:7 *24:10 0.756616
10 *24:13 *24:8 13.8764
11 *24:13 *24:7 0.313064
12 *24:12 *24:3 5.6525
13 *24:3 *80:Q 11.305
*END

*D_NET *56 0.00142099

*CONN
*I *104:Q O *C 23.46 30.46 *L 0 *D XOR2X1
*I *100:D I *C 16.38 25.62 *L 0.00193 *D DFPX3

*CAP
1 *104:Q 0.000681261
2 *100:D 0.000653636
3 *56:2 8.60977e-05

*RES
1 *104:Q *56:2 6.63121
2 *100:D *56:2 14.3425
*END

*D_NET *9 0.00496245

*CONN
*P *9 O *C 39.48 0 *L 0
*I *93:Q O *C 53.48 28.84 *L 0 *D DFCX6

*CAP
1 *9 0.00019768
2 *9:2 0.000221457
3 *9:3 0.000170924
4 *9:4 0.000162514
5 *9:5 8.66508e-05
6 *9:6 0.0010396
7 *9:7 0.000439849
8 *9:8 0.00264378

*RES
1 *9:5 *9:6 6.07499
2 *9:7 *9:8 25.243
3 *9:2 *9:3 0.864288
4 *9:4 *9:5 0.431912
5 *9:9 *9:7 2.30477
6 *9:6 *9:9 0.431912
7 *9:4 *9:10 1.15238
8 *9:8 *9 5.6525
9 *9:10 *9:2 5.6525
10 *9:2 *93:Q 5.6525
*END

*D_NET *25 0.00395127

*CONN
*I *94:D I *C 58.52 19.88 *L 0.00176 *D DFCX6
*I *79:Q O *C 67.9 38.22 *L 0 *D DFCX1
*I *78:D I *C 60.2 35 *L 0.00193 *D DFCX1

*CAP
1 *94:D 0.000280284
2 *25:3 0.000207644
3 *25:4 0.000174652
4 *25:5 0.000970822
5 *25:6 0.00182741
6 *25:7 0.000490462

*RES
1 *25:6 *25:7 10.3954
2 *25:5 *25:7 2.26924
3 *25:3 *25:4 0.636692
4 *94:D *25:6 6.73382
5 *25:3 *25:5 16.7539
6 *25:7 *78:D 5.6525
7 *25:3 *79:Q 5.6525
*END

*D_NET *57 0.00514455

*CONN
*I *103:B I *C 21.7 49.96 *L 0.00407 *D XOR2X1
*I *73:B1 I *C 18.2 40.04 *L 0.00246 *D AO21X3
*I *72:A I *C 29.4 56.28 *L 0.00134 *D INVXL
*I *71:Q O *C 26.78 46.12 *L 0 *D NOR2XL

*CAP
1 *103:B 0.000124745
2 *73:B1 0.00047098
3 *72:A 0.000370807
4 *57:4 0.000110074
5 *57:5 0.000278659
6 *57:6 0.000203712
7 *57:7 0.00101033
8 *57:8 0.000242969
9 *57:9 0.000616881
10 *57:10 0.000701254
11 *57:11 0.00101414

*RES
1 *57:4 *57:7 11.4028
2 *57:10 *57:11 9.49378
3 *57:12 *57:9 12.9009
4 *57:8 *57:11 8.70358
5 *57:5 *57:6 0.864288
6 *57:13 *57:11 1.95617
7 *57:8 *57:9 1.08132
8 *57:7 *57:8 1.46545
9 *73:B1 *57:10 13.6098
10 *72:A *57:4 3.33816
11 *103:B *57:12 0.593951
12 *57:13 *57:5 5.6525
13 *57:5 *71:Q 5.6525
*END

*D_NET *10 0.0038774

*CONN
*P *10 O *C 38.36 0 *L 0
*I *92:Q O *C 52.92 15.96 *L 0 *D DFCX6

*CAP
1 *10 0.000243357
2 *92:Q 0.000157808
3 *10:2 0.00152657
4 *10:3 0.000432783
5 *10:4 0.000857292
6 *10:5 0.00031806
7 *10:6 0.000341526

*RES
1 *10:3 *10:7 2.26924
2 *10:4 *10:5 1.20017
3 *92:Q *10:2 14.0323
4 *10:8 *10:4 5.30673
5 *10:3 *10:8 0.431912
6 *10:5 *10:6 1.84958
7 *10 *10:6 0.490333
8 *10:7 *10:2 5.6525
*END

*D_NET *26 0.00420912

*CONN
*I *93:D I *C 43.96 29.96 *L 0.00176 *D DFCX6
*I *78:Q O *C 67.9 36.82 *L 0 *D DFCX1
*I *77:D I *C 58.52 29.96 *L 0.00193 *D DFCX1

*CAP
1 *78:Q 0.00017576
2 *26:3 0.000889873
3 *26:4 0.000236903
4 *26:5 0.000161784
5 *26:6 0.000233647
6 *26:7 0.000175661
7 *26:8 0.000870223
8 *26:9 0.00146527

*RES
1 *26:6 *26:7 0.864288
2 *78:Q *26:3 10.191
3 *26:4 *26:5 0.864288
4 *26:8 *26:9 9.98733
5 *26:3 *26:8 12.2537
6 *26:8 *26:4 5.6525
7 *26:9 *26:6 5.6525
8 *26:4 *77:D 5.6525
9 *26:6 *93:D 5.6525
*END

*D_NET *58 0.000961571

*CONN
*I *85:D I *C 14.84 45.08 *L 0.00193 *D DFCX1
*I *73:Q O *C 17.29 40.54 *L 0 *D AO21X3

*CAP
1 *73:Q 0.000226626
2 *58:2 0.000734945

*RES
1 *73:Q *58:2 2.24048
2 *85:D *58:2 14.378
*END

*D_NET *11 0.00301517

*CONN
*P *11 O *C 37.24 0 *L 0
*I *91:Q O *C 40.04 18.76 *L 0 *D DFCX6

*CAP
1 *11 0.000318562
2 *11:2 0.00235643
3 *11:3 0.000340175

*RES
1 *91:Q *11:2 16.7922
2 *11 *11:3 1.25859
3 *11:2 *11:3 7.57314
*END

*D_NET *27 0.00568703

*CONN
*I *92:D I *C 43.4 14.84 *L 0.00176 *D DFCX6
*I *77:Q O *C 66.22 28.14 *L 0 *D DFCX1
*I *76:D I *C 52.92 19.88 *L 0.00193 *D DFCX1

*CAP
1 *92:D 0.000401095
2 *77:Q 0.000178789
3 *27:3 0.00035885
4 *27:4 0.0011573
5 *27:5 6.12409e-05
6 *27:6 0.000429943
7 *27:7 0.00114468
8 *27:8 0.00195513

*RES
1 *92:D *27:7 6.76935
2 *77:Q *27:3 6.79324
3 *27:5 *27:6 1.21181
4 *27:9 *27:3 0.313064
5 *27:4 *27:5 0.313064
6 *76:D *27:8 13.5742
7 *27:6 *27:8 14.8716
8 *27:9 *27:4 5.80971
9 *27:7 *27:8 12.1827
*END

*D_NET *59 7.96234e-05

*CONN
*I *72:Q O *C 29.74 56.5 *L 0 *D INVXL
*I *70:A I *C 30.82 56.01 *L 0.0012 *D NOR2XL

*CAP
1 *72:Q 7.96234e-05

*RES
1 *72:Q *70:A 0.548842
*END

*D_NET *12 0.00340706

*CONN
*P *12 O *C 36.12 0 *L 0
*I *90:Q O *C 24.92 18.76 *L 0 *D DFCX6

*CAP
1 *12 0.000114089
2 *12:2 0.00329297

*RES
1 *90:Q *12:2 17.9446
2 *12 *12:2 13.4061
*END

*D_NET *28 0.00353106

*CONN
*I *91:D I *C 30.52 19.88 *L 0.00176 *D DFCX6
*I *76:Q O *C 45.22 18.06 *L 0 *D DFCX1
*I *75:D I *C 40.04 24.92 *L 0.00193 *D DFCX1

*CAP
1 *28:3 0.00015252
2 *28:4 0.000171164
3 *28:5 0.000896585
4 *28:6 0.00144976
5 *28:7 0.000861033

*RES
1 *28:6 *28:7 12.1827
2 *75:D *28:5 9.56485
3 *28:5 *28:7 6.43434
4 *28:3 *28:4 0.636692
5 *91:D *28:6 6.76935
6 *28:7 *28:8 3.45715
7 *28:8 *28:3 5.6525
8 *28:3 *76:Q 5.6525
*END

*D_NET *60 0.00158321

*CONN
*I *102:B I *C 38.22 55.32 *L 0.00407 *D XOR2X1
*I *70:Q O *C 31.26 56.2 *L 0 *D NOR2XL

*CAP
1 *102:B 0.000181237
2 *60:2 0.000238868
3 *60:3 0.000982859
4 *60:4 0.000180247

*RES
1 *102:B *60:2 6.34969
2 *60:3 *60:4 0.636692
3 *60:2 *60:3 16.3697
4 *60:3 *70:Q 5.6525
*END

*D_NET *13 0.00358402

*CONN
*P *13 O *C 46.2 0 *L 0
*I *89:Q O *C 37.8 15.96 *L 0 *D DFCX6

*CAP
1 *13 0.000178937
2 *13:2 0.000157621
3 *13:3 0.00191455
4 *13:4 0.000148241
5 *13:5 0.000159361
6 *13:6 0.00102531

*RES
1 *13:2 *13:6 11.4855
2 *13:2 *13:3 9.98733
3 *13:4 *13:5 0.636692
4 *13 *13:3 5.6525
5 *13:6 *13:4 5.6525
6 *13:4 *89:Q 5.6525
*END

*D_NET *29 0.00397004

*CONN
*I *90:D I *C 15.4 19.88 *L 0.00176 *D DFCX6
*I *75:Q O *C 32.34 26.74 *L 0 *D DFCX1
*I *74:D I *C 14.84 14.84 *L 0.00193 *D DFCX1

*CAP
1 *74:D 0.000496566
2 *29:3 0.000163566
3 *29:4 0.000161864
4 *29:5 0.00070892
5 *29:6 0.00029249
6 *29:7 6.79735e-05
7 *29:8 0.000864681
8 *29:9 0.000250672
9 *29:10 0.000889054
10 *29:11 7.4253e-05

*RES
1 *74:D *29:7 7.59703
2 *29:6 *29:7 0.313064
3 *29:9 *29:12 1.15238
4 *29:5 *29:8 4.60954
5 *29:9 *29:13 0.431912
6 *29:3 *29:4 0.636692
7 *29:5 *29:11 9.87791
8 *29:10 *29:11 0.431912
9 *29:6 *29:8 1.52487
10 *29:13 *29:10 6.07499
11 *29:12 *29:3 5.6525
12 *29:3 *75:Q 5.6525
13 *29:8 *90:D 5.6525
*END

*D_NET *61 0.00127502

*CONN
*I *103:Q O *C 21.22 50.62 *L 0 *D XOR2X1
*I *99:D I *C 15.26 55.86 *L 0.00193 *D DFPX3

*CAP
1 *103:Q 0.000549579
2 *61:2 0.000725438

*RES
1 *103:Q *61:2 5.53353
2 *99:D *61:2 14.7622
*END

*D_NET *14 0.0289984

*CONN
*I *106:Q O *C 42.7 55.3 *L 0 *D CLKBUFX2
*I *100:SN I *C 22.21 25.47 *L 0.00406 *D DFPX3
*I *99:SN I *C 21.09 55.71 *L 0.00406 *D DFPX3
*I *98:RN I *C 52.92 38.36 *L 0.00441 *D DFCX6
*I *97:RN I *C 52.92 36.68 *L 0.00441 *D DFCX6
*I *96:RN I *C 52.92 48.44 *L 0.00441 *D DFCX6
*I *95:RN I *C 65.8 16.52 *L 0.00441 *D DFCX6
*I *94:RN I *C 65.8 18.2 *L 0.00441 *D DFCX6
*I *93:RN I *C 51.24 28.28 *L 0.00441 *D DFCX6
*I *92:RN I *C 50.68 16.52 *L 0.00441 *D DFCX6
*I *91:RN I *C 37.8 18.2 *L 0.00441 *D DFCX6
*I *90:RN I *C 22.68 18.2 *L 0.00441 *D DFCX6
*I *89:RN I *C 35.56 16.52 *L 0.00441 *D DFCX6
*I *86:RN I *C 21.7 35.7 *L 0.00457 *D DFCX1
*I *85:RN I *C 21.7 45.78 *L 0.00457 *D DFCX1
*I *84:RN I *C 33.18 49.42 *L 0.00457 *D DFCX1
*I *83:RN I *C 37.94 45.78 *L 0.00457 *D DFCX1
*I *82:RN I *C 66.5 55.86 *L 0.00457 *D DFCX1
*I *81:RN I *C 67.06 49.42 *L 0.00457 *D DFCX1
*I *80:RN I *C 66.5 45.78 *L 0.00457 *D DFCX1
*I *79:RN I *C 67.06 39.34 *L 0.00457 *D DFCX1
*I *78:RN I *C 67.06 35.7 *L 0.00457 *D DFCX1
*I *77:RN I *C 65.38 29.26 *L 0.00457 *D DFCX1
*I *76:RN I *C 46.06 19.18 *L 0.00457 *D DFCX1
*I *75:RN I *C 33.18 25.62 *L 0.00457 *D DFCX1
*I *74:RN I *C 21.7 15.54 *L 0.00457 *D DFCX1

*CAP
1 *106:Q 0.000948619
2 *95:RN 0.000412356
3 *92:RN 0.00133096
4 *89:RN 0.000171109
5 *86:RN 0.000128197
6 *84:RN 0.000271103
7 *76:RN 0.000879208
8 *74:RN 0.00038875
9 *14:26 8.79201e-05
10 *14:27 0.00037238
11 *14:28 0.00113163
12 *14:29 0.000907963
13 *14:30 0.000630084
14 *14:31 9.84478e-05
15 *14:32 0.000619614
16 *14:33 0.000307168
17 *14:34 7.61492e-05
18 *14:35 0.000451521
19 *14:36 0.000156444
20 *14:37 0.000150075
21 *14:38 0.000913693
22 *14:39 0.000117627
23 *14:40 0.000153967
24 *14:41 0.000170105
25 *14:42 0.000702548
26 *14:43 0.000752859
27 *14:44 7.13183e-05
28 *14:45 9.81668e-05
29 *14:46 6.8185e-05
30 *14:47 0.00178161
31 *14:48 0.000902178
32 *14:49 0.000575712
33 *14:50 0.00076075
34 *14:51 0.00234195
35 *14:52 0.000202515
36 *14:53 0.000903162
37 *14:54 0.000793818
38 *14:55 0.00128438
39 *14:56 0.00117294
40 *14:57 0.000993426
41 *14:58 0.000912951
42 *14:59 0.000656432
43 *14:60 0.00124149
44 *14:61 0.00048003
45 *14:62 0.000986563
46 *14:63 0.000440313

*RES
1 *14:26 *14:54 10.262
2 *14:34 *14:35 1.909
3 *14:52 *14:55 1.08132
4 *14:42 *14:44 0.313064
5 *92:RN *14:35 11.7275
6 *83:RN *14:38 11.6891
7 *14:34 *14:56 0.313064
8 *14:45 *14:46 0.313064
9 *14:61 *14:62 4.99367
10 *82:RN *14:28 15.5898
11 *14:37 *14:38 3.82964
12 *89:RN *14:27 1.14279
13 *14:57 *14:62 10.6345
14 *14:29 *14:49 4.21377
15 *14:33 *14:52 1.11103
16 *14:47 *14:59 13.3351
17 *78:RN *14:30 11.6891
18 *76:RN *14:36 15.5304
19 *14:33 *14:56 5.80971
20 *14:51 *14:63 12.5668
21 *14:42 *14:64 3.88906
22 *14:60 *14:61 3.84128
23 *14:51 *14:58 4.99367
24 *14:28 *14:49 2.6889
25 *14:48 *14:65 0.313064
26 *14:44 *14:51 6.89236
27 *106:Q *14:26 9.92426
28 *14:27 *14:39 6.79324
29 *99:SN *14:47 14.378
30 *14:40 *14:41 0.636692
31 *14:32 *14:50 2.61783
32 *79:RN *14:29 11.6891
33 *14:54 *14:55 6.91431
34 *14:66 *14:60 10.0229
35 *14:47 *14:48 3.82964
36 *14:32 *14:53 4.99367
37 *14:43 *14:65 3.12081
38 *84:RN *14:59 18.1099
39 *14:37 *14:59 9.18072
40 *74:RN *14:46 12.9009
41 *14:45 *14:58 0.372488
42 *14:31 *14:50 4.28483
43 *81:RN *14:28 11.6891
44 *14:62 *14:63 3.45715
45 *14:64 *14:43 0.697192
46 *14:30 *14:31 0.697192
47 *14:39 *14:57 0.697192
48 *86:RN *14:44 11.6891
49 *14:29 *14:30 2.66695
50 *95:RN *14:53 6.76935
51 *14:66 *14:32 5.6525
52 *14:60 *14:35 5.6525
53 *14:61 *14:36 5.6525
54 *14:63 *14:40 5.6525
55 *14:49 *80:RN 11.305
56 *14:50 *77:RN 11.305
57 *14:40 *75:RN 11.305
58 *14:51 *100:SN 11.305
59 *14:65 *85:RN 11.305
60 *14:52 *97:RN 5.6525
61 *14:53 *94:RN 5.6525
62 *14:54 *96:RN 5.6525
63 *14:55 *98:RN 5.6525
64 *14:56 *93:RN 5.6525
65 *14:57 *91:RN 5.6525
66 *14:58 *90:RN 5.6525
*END

*D_NET *30 0.00128915

*CONN
*I *89:D I *C 28.28 14.84 *L 0.00176 *D DFCX6
*I *74:Q O *C 22.54 16.66 *L 0 *D DFCX1

*CAP
1 *74:Q 0.000183026
2 *30:2 0.000320702
3 *30:3 0.000785427

*RES
1 *74:Q *30:3 6.73382
2 *30:3 *30:4 8.37693
3 *30:4 *30:2 5.6525
4 *30:2 *89:D 5.6525
*END

*D_NET *62 0.000842726

*CONN
*I *102:Q O *C 38.7 54.66 *L 0 *D XOR2X1
*I *84:D I *C 40.04 50.12 *L 0.00193 *D DFCX1

*CAP
1 *102:Q 0.000144924
2 *84:D 0.000585605
3 *62:2 0.000112197

*RES
1 *102:Q *62:2 1.14279
2 *84:D *62:2 14.378
*END

*D_NET *15 0.0229834

*CONN
*I *101:Q O *C 33.81 54.74 *L 0 *D CLKBUFX6
*I *100:CP I *C 14.28 24.36 *L 0.00199 *D DFPX3
*I *99:CP I *C 13.16 54.6 *L 0.00199 *D DFPX3
*I *86:CP I *C 12.6 35 *L 0.00195 *D DFCX1
*I *85:CP I *C 12.6 45.08 *L 0.00195 *D DFCX1
*I *84:CP I *C 42.28 50.12 *L 0.00195 *D DFCX1
*I *83:CP I *C 28.84 45.08 *L 0.00195 *D DFCX1
*I *82:CP I *C 57.4 55.16 *L 0.00195 *D DFCX1
*I *81:CP I *C 57.96 50.12 *L 0.00195 *D DFCX1
*I *80:CP I *C 57.4 45.08 *L 0.00195 *D DFCX1
*I *79:CP I *C 57.96 40.04 *L 0.00195 *D DFCX1
*I *78:CP I *C 57.96 35 *L 0.00195 *D DFCX1
*I *77:CP I *C 56.28 29.96 *L 0.00195 *D DFCX1
*I *76:CP I *C 55.16 19.88 *L 0.00195 *D DFCX1
*I *75:CP I *C 42.28 24.92 *L 0.00195 *D DFCX1
*I *74:CP I *C 12.6 14.84 *L 0.00195 *D DFCX1

*CAP
1 *100:CP 0.000145311
2 *99:CP 0.000159763
3 *82:CP 0.000113525
4 *81:CP 9.13624e-05
5 *80:CP 0.000113476
6 *79:CP 8.7934e-05
7 *78:CP 0.00053216
8 *77:CP 0.00124247
9 *75:CP 0.000134249
10 *74:CP 0.00118431
11 *15:16 8.62116e-05
12 *15:17 0.000148336
13 *15:18 0.00083921
14 *15:19 0.000635189
15 *15:20 0.000596222
16 *15:21 0.000167335
17 *15:22 0.000198903
18 *15:23 0.000201223
19 *15:24 0.000158293
20 *15:25 0.000158569
21 *15:26 0.000117408
22 *15:27 0.000589056
23 *15:28 0.00164319
24 *15:29 0.00167015
25 *15:30 0.000396422
26 *15:31 0.000110994
27 *15:32 0.00013215
28 *15:33 0.000186775
29 *15:34 0.000212928
30 *15:35 6.7688e-05
31 *15:36 0.00242533
32 *15:37 0.00110792
33 *15:38 0.00418601
34 *15:39 0.000400669
35 *15:40 0.00274261

*RES
1 *15:22 *15:23 0.636692
2 *77:CP *15:21 12.4957
3 *15:26 *15:27 0.252564
4 *15:18 *15:41 0.732724
5 *15:34 *15:35 0.313064
6 *15:17 *15:42 0.756616
7 *15:43 *15:17 0.313064
8 *15:44 *15:40 16.2044
9 *15:29 *15:45 11.4855
10 *15:20 *15:21 2.80882
11 *78:CP *15:43 8.32976
12 *15:30 *15:31 0.697192
13 *15:21 *15:42 0.726904
14 *99:CP *15:34 6.79324
15 *15:37 *15:38 7.22737
16 *15:24 *15:25 0.636692
17 *75:CP *15:26 5.96556
18 *15:32 *15:33 0.636692
19 *15:29 *15:30 1.909
20 *80:CP *15:46 1.14279
21 *15:19 *15:20 0.636692
22 *15:36 *15:37 6.84324
23 *15:16 *15:18 9.09801
24 *15:28 *15:47 14.523
25 *101:Q *15:29 8.72552
26 *15:27 *15:28 2.7494
27 *15:36 *15:39 16.8277
28 *15:38 *15:48 26.0824
29 *15:39 *15:40 2.65337
30 *82:CP *15:16 1.14279
31 *15:18 *15:19 3.38609
32 *74:CP *15:38 12.1116
33 *15:35 *15:36 5.36615
34 *100:CP *15:38 7.34413
35 *15:31 *15:40 7.17737
36 *15:44 *15:19 5.6525
37 *15:45 *15:24 5.6525
38 *15:39 *15:32 5.6525
39 *15:48 *15:26 5.6525
40 *15:47 *15:22 5.6525
41 *15:22 *76:CP 11.305
42 *15:24 *84:CP 11.305
43 *15:32 *83:CP 5.6525
44 *15:36 *85:CP 5.6525
45 *15:37 *86:CP 5.6525
46 *15:41 *81:CP 5.6525
47 *15:42 *79:CP 5.6525
48 *15:19 *15:46 5.6525
*END

*D_NET *63 0.00197125

*CONN
*I *105:B I *C 41.72 45.64 *L 0.00779 *D NOR2X6
*I *88:Q O *C 35.11 34.1 *L 0 *D NAND3X1

*CAP
1 *88:Q 0.00057358
2 *63:2 0.00139767

*RES
1 *88:Q *63:2 4.98468
2 *105:B *63:2 23.4877
*END

*D_NET *16 0.0031536

*CONN
*I *102:A I *C 36.68 55.16 *L 0.00444 *D XOR2X1
*I *84:Q O *C 32.34 48.3 *L 0 *D DFCX1
*I *69:A I *C 36.38 39.19 *L 0.0012 *D NOR2XL

*CAP
1 *69:A 0.00121086
2 *16:3 0.00106792
3 *16:4 0.00025155
4 *16:5 0.000173592
5 *16:6 0.000449675

*RES
1 *102:A *16:3 10.262
2 *16:4 *16:5 0.636692
3 *16:3 *16:6 8.79659
4 *69:A *16:3 11.7985
5 *16:6 *16:4 5.6525
6 *16:4 *84:Q 5.6525
*END

*D_NET *64 0.0152901

*CONN
*I *105:Q O *C 42.46 46.76 *L 0 *D NOR2X6
*I *98:CP I *C 42.84 40.6 *L 0.0019 *D DFCX6
*I *97:CP I *C 42.84 34.44 *L 0.0019 *D DFCX6
*I *96:CP I *C 42.84 50.68 *L 0.0019 *D DFCX6
*I *95:CP I *C 55.72 14.28 *L 0.0019 *D DFCX6
*I *94:CP I *C 55.72 20.44 *L 0.0019 *D DFCX6
*I *93:CP I *C 41.16 30.52 *L 0.0019 *D DFCX6
*I *92:CP I *C 40.6 14.28 *L 0.0019 *D DFCX6
*I *91:CP I *C 27.72 20.44 *L 0.0019 *D DFCX6
*I *90:CP I *C 12.6 20.44 *L 0.0019 *D DFCX6
*I *89:CP I *C 25.48 14.28 *L 0.0019 *D DFCX6

*CAP
1 *98:CP 0.000263932
2 *97:CP 0.000156102
3 *95:CP 0.000715738
4 *94:CP 0.000393779
5 *92:CP 0.00056878
6 *90:CP 0.000128458
7 *89:CP 0.000762867
8 *64:11 7.70193e-05
9 *64:12 0.000622576
10 *64:13 0.000479832
11 *64:14 0.000302522
12 *64:15 0.00268413
13 *64:16 0.000384867
14 *64:17 0.000396464
15 *64:18 0.000616561
16 *64:19 0.000597973
17 *64:20 6.19601e-05
18 *64:21 0.000126413
19 *64:22 0.000150295
20 *64:23 0.000372906
21 *64:24 6.84352e-05
22 *64:25 7.66698e-05
23 *64:26 0.000145635
24 *64:27 0.000178225
25 *64:28 0.000522727
26 *64:29 0.000335335
27 *64:30 6.48954e-05
28 *64:31 0.000130541
29 *64:32 9.16301e-05
30 *64:33 0.000188316
31 *64:34 0.00134987
32 *64:35 0.00128732
33 *64:36 0.000207453
34 *64:37 0.000779922

*RES
1 *64:38 *64:37 6.14605
2 *64:17 *64:29 1.46545
3 *64:12 *64:33 8.71388
4 *64:39 *64:12 0.697192
5 *89:CP *64:24 7.94563
6 *105:Q *64:13 6.76935
7 *64:17 *64:32 7.60867
8 *64:19 *64:20 0.313064
9 *64:16 *64:19 2.67726
10 *64:23 *64:36 7.5615
11 *64:15 *64:16 1.46545
12 *64:15 *64:28 5.30673
13 *64:27 *64:28 2.61783
14 *64:16 *64:35 14.9426
15 *90:CP *64:40 1.14279
16 *64:35 *64:36 1.15238
17 *64:15 *64:33 14.8716
18 *95:CP *64:39 8.32976
19 *64:23 *64:24 0.313064
20 *98:CP *64:29 7.89298
21 *64:30 *64:31 0.636692
22 *64:11 *64:33 6.42076
23 *64:41 *64:27 0.756616
24 *64:18 *64:29 3.44551
25 *64:41 *64:18 0.313064
26 *64:21 *64:22 0.636692
27 *64:34 *64:36 9.98733
28 *64:25 *64:26 0.636692
29 *94:CP *64:11 7.18901
30 *92:CP *64:20 7.17737
31 *97:CP *64:27 7.34413
32 *64:38 *64:30 5.6525
33 *64:37 *64:32 5.6525
34 *64:30 *64:14 5.6525
35 *64:32 *64:13 5.6525
36 *64:34 *64:25 5.6525
37 *64:35 *64:21 5.6525
38 *64:14 *96:CP 5.6525
39 *64:28 *93:CP 5.6525
40 *64:21 *91:CP 5.6525
41 *64:25 *64:40 5.6525
*END

