*SPEF "IEEE 1481-1998"
*DESIGN "fet_dec"
*DATE "Tue Aug 29 14:46:06 2017"
*VENDOR "Cadence Design Systems, Inc."
*PROGRAM "Innovus"
*VERSION "15.28-s017_1"
*DESIGN_FLOW "PIN_CAP NONE" "NAME_SCOPE LOCAL"
*DIVIDER /
*DELIMITER :
*BUS_DELIMITER []
*T_UNIT 1 NS
*C_UNIT 1 PF
*R_UNIT 1 OHM
*L_UNIT 1 HENRY

// MMMC spef file for corner 'ams_rc_corner_maxCaR'

*NAME_MAP

*1 CTS_160
*2 CTS_159
*3 CTS_158
*4 CTS_157
*5 CTS_156
*6 CTS_155
*7 CTS_154
*8 CTS_153
*9 CTS_152
*10 CTS_151
*11 CTS_150
*12 CTS_149
*13 CTS_148
*14 CTS_147
*15 CTS_146
*16 CTS_145
*17 sll_18_12/CTS_135
*18 CTS_144
*19 CTS_143
*20 CTS_142
*21 CTS_141
*22 CTS_140
*23 CTS_139
*24 CTS_138
*25 CTS_137
*26 CTS_136
*27 CTS_135
*28 CTS_134
*29 CTS_133
*30 CTS_132
*31 CTS_131
*32 CTS_130
*33 CTS_129
*34 in[4]
*35 in[3]
*36 in[2]
*37 in[1]
*38 in[0]
*39 out[31]
*40 out[30]
*41 out[29]
*42 out[28]
*43 out[27]
*44 out[26]
*45 out[25]
*46 out[24]
*47 out[23]
*48 out[22]
*49 out[21]
*50 out[20]
*51 out[19]
*52 out[18]
*53 out[17]
*54 out[16]
*55 out[15]
*56 out[14]
*57 out[13]
*58 out[12]
*59 out[11]
*60 out[10]
*61 out[9]
*62 out[8]
*63 out[7]
*64 out[6]
*65 out[5]
*66 out[4]
*67 out[3]
*68 out[2]
*69 out[1]
*70 out[0]
*71 logic_1_1_net
*72 sll_18_12/n_0
*73 sll_18_12/n_1
*74 sll_18_12/n_2
*75 sll_18_12/n_3
*76 sll_18_12/n_4
*77 sll_18_12/n_5
*78 sll_18_12/n_7
*79 sll_18_12/n_8
*80 sll_18_12/n_9
*81 sll_18_12/n_10
*82 sll_18_12/n_11
*83 sll_18_12/n_12
*84 sll_18_12/n_13
*85 sll_18_12/n_15
*86 sll_18_12/n_17
*87 sll_18_12/n_29
*88 sll_18_12/n_31
*89 sll_18_12/n_34
*90 sll_18_12/n_36
*91 CTS_ccl_BUF_in_0__G0_L3_16
*92 CTS_ccl_BUF_in_0__G0_L3_15
*93 CTS_ccl_BUF_in_0__G0_L3_14
*94 CTS_ccl_BUF_in_0__G0_L3_13
*95 CTS_ccl_BUF_in_0__G0_L3_12
*96 CTS_ccl_BUF_in_0__G0_L3_11
*97 CTS_ccl_BUF_in_0__G0_L3_10
*98 CTS_ccl_BUF_in_0__G0_L3_9
*99 CTS_ccl_BUF_in_0__G0_L3_8
*100 CTS_ccl_BUF_in_0__G0_L3_7
*101 CTS_ccl_BUF_in_0__G0_L3_6
*102 CTS_ccl_BUF_in_0__G0_L3_5
*103 CTS_ccl_BUF_in_0__G0_L3_4
*104 CTS_ccl_BUF_in_0__G0_L3_3
*105 CTS_ccl_BUF_in_0__G0_L3_2
*106 CTS_ccl_BUF_in_0__G0_L3_1
*107 CTS_ccl_BUF_in_0__G0_L4_16
*108 CTS_ccl_BUF_in_0__G0_L4_15
*109 CTS_ccl_BUF_in_0__G0_L4_14
*110 CTS_ccl_BUF_in_0__G0_L4_13
*111 CTS_ccl_BUF_in_0__G0_L4_12
*112 CTS_ccl_BUF_in_0__G0_L4_11
*113 CTS_ccl_BUF_in_0__G0_L4_10
*114 CTS_ccl_BUF_in_0__G0_L4_9
*115 CTS_ccl_BUF_in_0__G0_L4_8
*116 CTS_ccl_BUF_in_0__G0_L4_7
*117 CTS_ccl_BUF_in_0__G0_L4_6
*118 CTS_ccl_BUF_in_0__G0_L4_5
*119 CTS_ccl_BUF_in_0__G0_L4_4
*120 CTS_ccl_BUF_in_0__G0_L4_3
*121 CTS_ccl_BUF_in_0__G0_L4_2
*122 CTS_ccl_BUF_in_0__G0_L4_1
*123 tie_1_cell
*124 sll_18_12/CTS_cex_INV_in_0__G0_L1_1
*125 sll_18_12/g200
*126 sll_18_12/g202
*127 sll_18_12/g348
*128 sll_18_12/g349
*129 sll_18_12/g350
*130 sll_18_12/g351
*131 sll_18_12/g191
*132 sll_18_12/g192
*133 sll_18_12/g193
*134 sll_18_12/g194
*135 sll_18_12/g195
*136 sll_18_12/g196
*137 sll_18_12/g197
*138 sll_18_12/g198
*139 sll_18_12/g316
*140 sll_18_12/g317
*141 sll_18_12/g318
*142 sll_18_12/g319
*143 sll_18_12/g320
*144 sll_18_12/g321
*145 sll_18_12/g322
*146 sll_18_12/g323
*147 sll_18_12/g324
*148 sll_18_12/g325
*149 sll_18_12/g326
*150 sll_18_12/g327
*151 sll_18_12/g328
*152 sll_18_12/g329
*153 sll_18_12/g330
*154 sll_18_12/g331
*155 sll_18_12/g332
*156 sll_18_12/g333
*157 sll_18_12/g334
*158 sll_18_12/g335
*159 sll_18_12/g336
*160 sll_18_12/g337
*161 sll_18_12/g338
*162 sll_18_12/g339
*163 sll_18_12/g340
*164 sll_18_12/g341
*165 sll_18_12/g342
*166 sll_18_12/g343
*167 sll_18_12/g344
*168 sll_18_12/g345
*169 sll_18_12/g346
*170 sll_18_12/g347
*171 sll_18_12/g123
*172 sll_18_12/g203
*173 sll_18_12/g204
*174 sll_18_12/g199
*175 sll_18_12/g201


*PORTS

*34 I *C 50.12 59.92
*35 I *C 49 59.92
*36 I *C 47.88 59.92
*37 I *C 46.76 59.92
*38 I *C 45.64 59.92
*39 O *C 31.08 0
*40 O *C 32.2 0
*41 O *C 33.32 0
*42 O *C 34.44 0
*43 O *C 35.56 0
*44 O *C 36.68 0
*45 O *C 37.8 0
*46 O *C 38.92 0
*47 O *C 40.04 0
*48 O *C 41.16 0
*49 O *C 42.28 0
*50 O *C 43.4 0
*51 O *C 44.52 0
*52 O *C 45.64 0
*53 O *C 46.76 0
*54 O *C 47.88 0
*55 O *C 49 0
*56 O *C 50.12 0
*57 O *C 51.24 0
*58 O *C 52.36 0
*59 O *C 53.48 0
*60 O *C 54.6 0
*61 O *C 55.72 0
*62 O *C 56.84 0
*63 O *C 57.96 0
*64 O *C 59.08 0
*65 O *C 60.2 0
*66 O *C 61.32 0
*67 O *C 62.44 0
*68 O *C 63.56 0
*69 O *C 64.68 0
*70 O *C 65.8 0


*D_NET *35 0.0108737

*CONN
*P *35 I *C 49 59.92 *L 0
*I *171:A I *C 32.76 46.2 *L 0.00134 *D INVXL
*I *129:B I *C 46.76 25.48 *L 0.00154 *D NAND2XL
*I *127:B I *C 35.56 35.56 *L 0.00154 *D NAND2XL

*CAP
1 *35 0.000355021
2 *129:B 0.000200008
3 *127:B 0.000225069
4 *35:4 0.000753895
5 *35:5 0.00243352
6 *35:6 0.00011049
7 *35:7 0.00187611
8 *35:8 0.000199814
9 *35:9 0.00102385
10 *35:10 0.000199747
11 *35:11 0.000422652
12 *35:12 0.0030735

*RES
1 *35:5 *35:10 16.7195
2 *171:A *35:7 15.1463
3 *35:4 *35:10 8.65446
4 *129:B *35:4 1.69163
5 *35:6 *35:9 9.18072
6 *35:6 *35:7 4.34562
7 *35:5 *35:9 9.42272
8 *35:8 *35:10 0.697192
9 *35:13 *35:12 19.2064
10 *127:B *35:9 7.25392
11 *35:13 *35 5.6525
12 *35:12 *35:11 5.6525
13 *35:11 *35:8 5.6525
*END

*D_NET *51 0.0107072

*CONN
*P *51 O *C 44.52 0 *L 0
*I *100:Q O *C 80.05 46.5 *L 0 *D CLKBUFX4

*CAP
1 *51 0.000355187
2 *51:2 0.000850277
3 *51:3 0.00373648
4 *51:4 0.00348552
5 *51:5 0.00141873
6 *51:6 0.000861011

*RES
1 *51:5 *51:6 11.4144
2 *100:Q *51:2 9.49378
3 *51:2 *51:3 23.3935
4 *51:4 *51:5 6.98537
5 *51:3 *51:4 32.361
6 *51:6 *51 5.6525
*END

*D_NET *67 0.00449808

*CONN
*P *67 O *C 62.44 0 *L 0
*I *99:Q O *C 49.81 16.36 *L 0 *D CLKBUFX3

*CAP
1 *67 0.000285753
2 *67:2 0.000152496
3 *67:3 0.000986431
4 *67:4 0.0030734

*RES
1 *67:2 *67:3 4.15435
2 *99:Q *67:4 11.4144
3 *67:2 *67:4 19.4428
4 *67 *67:3 5.6525
*END

*D_NET *13 0.00786157

*CONN
*I *155:Q O *C 55.34 25.96 *L 0 *D NOR2XL
*I *103:A I *C 21 45.08 *L 0.00231 *D CLKBUFX3

*CAP
1 *155:Q 0.000185123
2 *13:2 0.00253552
3 *13:3 0.000208708
4 *13:4 0.00493222

*RES
1 *103:A *13:4 14.378
2 *155:Q *13:2 1.14279
3 *13:2 *13:3 16.337
4 *13:3 *13:4 34.0396
*END

*D_NET *29 0.00456638

*CONN
*I *149:Q O *C 38.74 36.04 *L 0 *D NOR2XL
*I *118:A I *C 15.4 24.92 *L 0.00231 *D CLKBUFX3

*CAP
1 *118:A 0.000457154
2 *29:2 0.00126462
3 *29:3 0.00284461

*RES
1 *118:A *29:3 13.6098
2 *149:Q *29:2 9.14519
3 *29:2 *29:3 27.4384
*END

*D_NET *82 0.0036245

*CONN
*I *171:Q O *C 32.42 46.42 *L 0 *D INVXL
*I *130:B I *C 34.44 45.64 *L 0.00154 *D NAND2XL
*I *128:B I *C 25.48 45.64 *L 0.00154 *D NAND2XL

*CAP
1 *171:Q 0.000506425
2 *130:B 0.000121663
3 *128:B 0.000197119
4 *82:3 0.000452258
5 *82:4 0.000123476
6 *82:5 0.000739631
7 *82:6 0.00102174
8 *82:7 0.000462188

*RES
1 *82:6 *82:7 13.1546
2 *171:Q *82:5 12.806
3 *130:B *82:3 1.14279
4 *82:5 *82:6 4.93958
5 *82:3 *82:4 13.1546
6 *128:B *82:7 1.69163
7 *82:4 *82:5 3.38327
*END

*D_NET *36 0.00673843

*CONN
*P *36 I *C 47.88 59.92 *L 0
*I *175:B I *C 73.64 46.2 *L 0.00142 *D NOR2XL
*I *173:A I *C 72.52 46.2 *L 0.00134 *D INVXL
*I *126:A I *C 52.92 39.48 *L 0.00219 *D AND2X3

*CAP
1 *36 0.000336703
2 *175:B 0.000118464
3 *126:A 0.00146288
4 *36:4 9.01424e-05
5 *36:5 0.00169498
6 *36:6 0.000470592
7 *36:7 7.79911e-05
8 *36:8 0.000129372
9 *36:9 0.000447382
10 *36:10 0.00135755
11 *36:11 0.000552375

*RES
1 *36:7 *36:10 6.75018
2 *36 *36:11 0.600084
3 *36:6 *36:7 0.331036
4 *36:4 *36:9 7.5615
5 *126:A *36:10 12.1827
6 *36:12 *36:6 3.75167
7 *36:4 *36:5 14.2699
8 *36:8 *36:10 6.07499
9 *36:8 *36:11 9.10965
10 *36:5 *36:12 0.331036
11 *175:B *36:9 6.34969
12 *36:9 *173:A 5.6525
*END

*D_NET *52 0.00678371

*CONN
*P *52 O *C 45.64 0 *L 0
*I *118:Q O *C 16.21 26.44 *L 0 *D CLKBUFX3

*CAP
1 *52 0.000285261
2 *118:Q 6.57072e-05
3 *52:2 0.000152496
4 *52:3 0.00101025
5 *52:4 0.00514029
6 *52:5 0.000129704

*RES
1 *52:2 *52:3 4.15435
2 *52:4 *52:5 12.6052
3 *52:2 *52:4 30.5825
4 *52 *52:3 5.6525
5 *52:5 *118:Q 5.6525
*END

*D_NET *68 0.00737509

*CONN
*P *68 O *C 63.56 0 *L 0
*I *117:Q O *C 25.17 16.36 *L 0 *D CLKBUFX3

*CAP
1 *68 0.000284586
2 *117:Q 0.000226304
3 *68:2 0.000161186
4 *68:3 0.000148582
5 *68:4 0.000861335
6 *68:5 0.0056931

*RES
1 *117:Q *68:2 1.69163
2 *68:3 *68:4 3.38609
3 *68:2 *68:5 12.1116
4 *68:3 *68:5 35.9603
5 *68 *68:4 5.6525
*END

*D_NET *14 0.00300899

*CONN
*I *167:Q O *C 37.42 25.96 *L 0 *D NOR2XL
*I *104:A I *C 31.08 35 *L 0.00231 *D CLKBUFX3

*CAP
1 *167:Q 0.000360327
2 *14:2 0.000214189
3 *14:3 0.00243447

*RES
1 *104:A *14:3 17.451
2 *167:Q *14:2 6.34969
3 *14:2 *14:3 15.5659
*END

*D_NET *30 0.00692742

*CONN
*I *150:Q O *C 19.5 15.88 *L 0 *D NOR2XL
*I *119:A I *C 66.92 14.84 *L 0.00231 *D CLKBUFX3

*CAP
1 *150:Q 0.000408362
2 *30:2 0.00018083
3 *30:3 0.000428764
4 *30:4 0.00590946

*RES
1 *119:A *30:3 11.6891
2 *150:Q *30:4 6.76935
3 *30:2 *30:3 1.14074
4 *30:2 *30:4 43.6428
*END

*D_NET *83 0.0155902

*CONN
*I *162:B I *C 28.84 15.96 *L 0.00142 *D NOR2XL
*I *158:B I *C 28.28 46.2 *L 0.00142 *D NOR2XL
*I *155:B I *C 55.72 26.04 *L 0.00142 *D NOR2XL
*I *139:B I *C 19.88 26.04 *L 0.00142 *D NOR2XL
*I *131:Q O *C 49.42 39.9 *L 0 *D NAND2XL

*CAP
1 *162:B 0.000421061
2 *155:B 0.000148073
3 *139:B 0.000127852
4 *131:Q 0.000608665
5 *83:5 0.000139269
6 *83:6 0.001205
7 *83:7 0.000107039
8 *83:8 0.000160934
9 *83:9 0.00106019
10 *83:10 0.00250305
11 *83:11 0.000879815
12 *83:12 6.68212e-05
13 *83:13 0.0018493
14 *83:14 8.36631e-05
15 *83:15 0.000267579
16 *83:16 9.09104e-05
17 *83:17 0.00165579
18 *83:18 6.60065e-05
19 *83:19 0.000283801
20 *83:20 0.00144106
21 *83:21 0.00121061
22 *83:22 0.000505765
23 *83:23 0.0007079

*RES
1 *83:16 *83:21 7.11795
2 *83:20 *83:22 7.28679
3 *162:B *83:23 7.57314
4 *155:B *83:5 1.14279
5 *83:8 *83:12 0.331036
6 *83:17 *83:24 7.34622
7 *83:11 *83:14 0.605457
8 *83:14 *83:23 6.75018
9 *83:5 *83:9 15.8435
10 *83:9 *83:10 18.6606
11 *83:17 *83:18 0.313064
12 *139:B *83:16 1.14279
13 *83:12 *83:13 14.1797
14 *131:Q *83:6 4.98468
15 *83:6 *83:7 16.9959
16 *83:18 *83:19 0.756616
17 *83:10 *83:25 0.605457
18 *83:13 *83:26 0.331036
19 *83:19 *83:21 16.7539
20 *83:7 *83:8 1.09768
21 *83:19 *83:23 3.00196
22 *83:25 *83:11 7.59357
23 *83:26 *83:15 1.09768
24 *83:15 *83:22 8.3414
25 *83:24 *83:20 0.697192
26 *83:22 *158:B 5.6525
*END

*D_NET *37 0.0103839

*CONN
*P *37 I *C 46.76 59.92 *L 0
*I *175:A I *C 74.46 45.93 *L 0.0012 *D NOR2XL
*I *174:B I *C 70.28 38.92 *L 0.00142 *D NOR2XL
*I *126:B I *C 54.02 40.16 *L 0.00239 *D AND2X3
*I *125:A I *C 71.96 39.48 *L 0.00219 *D AND2X3

*CAP
1 *37 0.000381926
2 *174:B 0.000824159
3 *126:B 0.00115585
4 *37:5 0.000671466
5 *37:6 0.000516972
6 *37:7 0.000273721
7 *37:8 0.000605002
8 *37:9 0.000316296
9 *37:10 0.00189213
10 *37:11 0.000163546
11 *37:12 0.0026574
12 *37:13 6.5738e-05
13 *37:14 0.000859729

*RES
1 *126:B *37:12 15.1463
2 *174:B *37:8 11.899
3 *37:8 *37:9 0.707756
4 *37:5 *37:10 14.378
5 *37:11 *37:12 7.22737
6 *37 *37:14 1.36834
7 *37:11 *37:14 11.0303
8 *174:B *37:5 5.53353
9 *37:12 *37:13 12.5668
10 *37:15 *37:8 24.2176
11 *37:6 *37:10 29.5954
12 *37:15 *37:7 0.707756
13 *37:16 *37:10 1.57204
14 *175:A *37:6 7.26008
15 *37:13 *37:16 5.6525
16 *37:15 *125:A 11.305
*END

*D_NET *53 0.00833856

*CONN
*P *53 O *C 46.76 0 *L 0
*I *102:Q O *C 66.61 36.52 *L 0 *D CLKBUFX3

*CAP
1 *53 0.000313829
2 *102:Q 0.000223822
3 *53:2 0.000150084
4 *53:3 0.00144145
5 *53:4 0.00309304
6 *53:5 0.00311634

*RES
1 *102:Q *53:2 1.60142
2 *53:2 *53:3 9.87791
3 *53:4 *53:5 25.172
4 *53:3 *53:4 21.0887
5 *53:5 *53 5.6525
*END

*D_NET *69 0.00481824

*CONN
*P *69 O *C 64.68 0 *L 0
*I *101:Q O *C 58.77 26.44 *L 0 *D CLKBUFX3

*CAP
1 *69 0.000250633
2 *101:Q 6.8468e-05
3 *69:2 0.000127947
4 *69:3 0.000215991
5 *69:4 0.00400222
6 *69:5 0.00015298

*RES
1 *69:2 *69:3 0.697192
2 *69:4 *69:5 16.0623
3 *69:2 *69:4 14.4491
4 *69 *69:3 5.6525
5 *69:5 *101:Q 5.6525
*END

*D_NET *15 0.00202862

*CONN
*I *168:Q O *C 69.54 36.04 *L 0 *D NOR2XL
*I *105:A I *C 70.28 45.08 *L 0.00243 *D CLKBUFX4

*CAP
1 *168:Q 0.000456376
2 *15:2 0.00150921
3 *15:3 6.30362e-05

*RES
1 *168:Q *15:3 6.40912
2 *105:A *15:2 11.858
3 *15:2 *15:3 0.313064
*END

*D_NET *31 0.00230649

*CONN
*I *153:Q O *C 73.26 15.88 *L 0 *D NOR2XL
*I *120:A I *C 75.88 24.92 *L 0.00231 *D CLKBUFX3

*CAP
1 *153:Q 0.000375608
2 *31:2 0.00135494
3 *31:3 0.000575937

*RES
1 *120:A *31:2 17.451
2 *153:Q *31:3 6.34969
3 *31:2 *31:3 13.2967
*END

*D_NET *84 0.011671

*CONN
*I *168:B I *C 69.16 36.12 *L 0.00142 *D NOR2XL
*I *159:B I *C 40.6 36.12 *L 0.00142 *D NOR2XL
*I *142:B I *C 56.28 36.12 *L 0.00142 *D NOR2XL
*I *140:B I *C 73.64 26.04 *L 0.00142 *D NOR2XL
*I *137:Q O *C 61.74 39.9 *L 0 *D NAND2XL

*CAP
1 *168:B 8.21657e-05
2 *137:Q 0.000900781
3 *84:5 0.000159254
4 *84:6 0.00108271
5 *84:7 0.00190835
6 *84:8 0.00023372
7 *84:9 0.000120602
8 *84:10 0.00170915
9 *84:11 0.00112127
10 *84:12 0.000394192
11 *84:13 0.00234905
12 *84:14 0.00101699
13 *84:15 0.00051824
14 *84:16 7.44844e-05

*RES
1 *142:B *84:7 13.9939
2 *84:15 *84:16 0.313064
3 *84:9 *84:10 12.5331
4 *84:17 *84:12 0.636692
5 *137:Q *84:15 6.86431
6 *84:6 *84:7 5.57864
7 *84:5 *84:14 9.03859
8 *84:10 *84:18 0.605457
9 *84:12 *84:13 14.4491
10 *84:7 *84:8 1.55631
11 *84:6 *84:16 9.48214
12 *137:Q *84:5 6.03726
13 *84:18 *84:11 1.09768
14 *84:8 *84:9 0.605457
15 *84:13 *84:14 6.84324
16 *159:B *84:11 13.9939
17 *84:12 *140:B 5.6525
18 *84:14 *168:B 5.6525
*END

*D_NET *38 0.00955129

*CONN
*P *38 I *C 45.64 59.92 *L 0
*I *130:A I *C 33.32 45.08 *L 0.00148 *D NAND2XL
*I *129:A I *C 45.64 24.92 *L 0.00148 *D NAND2XL
*I *124:A I *C 51.8 35 *L 0.00211 *D CLKINVX1

*CAP
1 *38 0.000149462
2 *129:A 6.23028e-05
3 *124:A 8.25217e-05
4 *38:4 0.000124276
5 *38:5 0.000979856
6 *38:6 0.00238721
7 *38:7 0.00180665
8 *38:8 0.000890649
9 *38:9 0.00211228
10 *38:10 0.00095608

*RES
1 *38:4 *38:8 3.07302
2 *38:6 *38:10 13.7192
3 *38:4 *38:10 9.87791
4 *38 *38:5 14.1033
5 *38:6 *38:7 3.77022
6 *38:9 *38:10 15.5688
7 *38:5 *38:7 9.6032
8 *38:7 *130:A 5.6525
9 *38:8 *124:A 5.6525
10 *38:9 *129:A 5.6525
*END

*D_NET *54 0.00666385

*CONN
*P *54 O *C 47.88 0 *L 0
*I *120:Q O *C 76.69 26.44 *L 0 *D CLKBUFX3

*CAP
1 *54 0.0003132
2 *54:2 0.000877234
3 *54:3 0.00351696
4 *54:4 0.00195646

*RES
1 *120:Q *54:2 9.49378
2 *54:3 *54:4 18.6418
3 *54:2 *54:3 25.3141
4 *54:4 *54 5.6525
*END

*D_NET *70 0.00241649

*CONN
*P *70 O *C 65.8 0 *L 0
*I *119:Q O *C 67.73 16.36 *L 0 *D CLKBUFX3

*CAP
1 *70 0.000365649
2 *70:2 0.00205084

*RES
1 *70 *70:2 7.18901
2 *119:Q *70:2 15.6398
*END

*D_NET *16 0.00614527

*CONN
*I *170:Q O *C 67.66 46.12 *L 0 *D NOR2XL
*I *106:A I *C 49.56 24.92 *L 0.00231 *D CLKBUFX3

*CAP
1 *170:Q 0.000219801
2 *106:A 0.000264181
3 *16:2 0.00292893
4 *16:3 0.00273236

*RES
1 *106:A *16:3 12.0733
2 *170:Q *16:2 17.4894
3 *16:2 *16:3 23.6326
*END

*D_NET *32 0.00134186

*CONN
*I *162:Q O *C 28.46 15.88 *L 0 *D NOR2XL
*I *121:A I *C 33.32 14.84 *L 0.00231 *D CLKBUFX3

*CAP
1 *32:2 0.000382155
2 *32:3 0.000247966
3 *32:4 0.00018286
4 *32:5 0.000528877

*RES
1 *121:A *32:2 12.0733
2 *32:3 *32:4 0.636692
3 *32:2 *32:5 9.18072
4 *32:5 *32:3 5.6525
5 *32:3 *162:Q 5.6525
*END

*D_NET *85 0.011868

*CONN
*I *165:B I *C 72.52 36.12 *L 0.00142 *D NOR2XL
*I *149:B I *C 38.36 36.12 *L 0.00142 *D NOR2XL
*I *145:B I *C 26.6 36.12 *L 0.00142 *D NOR2XL
*I *141:B I *C 42.84 26.04 *L 0.00142 *D NOR2XL
*I *136:Q O *C 51.1 39.9 *L 0 *D NAND2XL

*CAP
1 *165:B 0.000465877
2 *145:B 0.000436947
3 *141:B 6.92885e-05
4 *85:5 0.000136346
5 *85:6 0.00230394
6 *85:7 0.000326954
7 *85:8 0.00073884
8 *85:9 0.000101792
9 *85:10 0.00030411
10 *85:11 0.000397976
11 *85:12 0.000104221
12 *85:13 0.000277401
13 *85:14 6.63866e-05
14 *85:15 0.00037739
15 *85:16 0.00205063
16 *85:17 0.00370992

*RES
1 *85:15 *85:16 1.53651
2 *85:5 *85:18 0.605457
3 *85:10 *85:11 12.7704
4 *85:12 *85:17 19.8652
5 *85:16 *85:17 14.8716
6 *145:B *85:11 3.33816
7 *85:19 *85:8 5.94704
8 *85:7 *85:16 6.75018
9 *141:B *85:5 0.503733
10 *85:18 *85:6 3.84189
11 *85:8 *85:9 0.605457
12 *165:B *85:12 7.26008
13 *85:9 *85:10 1.09768
14 *85:7 *85:19 0.605457
15 *85:13 *85:14 0.48016
16 *85:6 *85:15 12.1116
17 *85:17 *85:13 5.6525
18 *85:13 *136:Q 5.6525
19 *85:15 *149:B 5.6525
*END

*D_NET *39 0.00828323

*CONN
*P *39 O *C 31.08 0 *L 0
*I *91:Q O *C 79.49 36.42 *L 0 *D CLKBUFX4

*CAP
1 *39 0.000241632
2 *39:2 0.000405323
3 *39:3 0.00094432
4 *39:4 0.00299432
5 *39:5 0.000306544
6 *39:6 0.00339109

*RES
1 *39:7 *39:5 0.636692
2 *39:4 *39:6 20.9601
3 *91:Q *39:2 6.80488
4 *39:2 *39:3 10.3331
5 *39:3 *39:4 28.6291
6 *39:6 *39:5 5.6525
7 *39:5 *39 5.6525
*END

*D_NET *55 0.00670941

*CONN
*P *55 O *C 49 0 *L 0
*I *94:Q O *C 67.73 26.44 *L 0 *D CLKBUFX3

*CAP
1 *55 0.000285699
2 *94:Q 0.000130869
3 *55:2 0.000125097
4 *55:3 0.00277277
5 *55:4 0.00271668
6 *55:5 0.000678296

*RES
1 *94:Q *55:2 1.14279
2 *55:2 *55:3 19.7942
3 *55:4 *55:5 2.61783
4 *55:3 *55:4 24.8205
5 *55 *55:5 5.6525
*END

*D_NET *1 0.009195

*CONN
*I *139:Q O *C 19.5 25.96 *L 0 *D NOR2XL
*I *91:A I *C 78.68 35 *L 0.00243 *D CLKBUFX4

*CAP
1 *139:Q 0.000421476
2 *1:2 0.00123418
3 *1:3 0.00753934

*RES
1 *139:Q *1:3 7.11795
2 *91:A *1:2 11.0303
3 *1:2 *1:3 52.0936
*END

*D_NET *17 0.00645559

*CONN
*I *128:A I *C 24.36 45.08 *L 0.00148 *D NAND2XL
*I *127:A I *C 34.44 35 *L 0.00148 *D NAND2XL
*I *124:Q O *C 52.22 34.02 *L 0 *D CLKINVX1

*CAP
1 *17:3 0.000270472
2 *17:4 0.000161157
3 *17:5 0.000163363
4 *17:6 0.00283605
5 *17:7 0.00145463
6 *17:8 0.0001844
7 *17:9 0.00138552

*RES
1 *17:6 *17:9 0.697192
2 *17:5 *17:9 6.91431
3 *17:6 *17:10 18.0157
4 *17:5 *17:7 18.2904
5 *17:3 *17:4 0.636692
6 *17:7 *17:8 0.636692
7 *17:10 *17:3 5.6525
8 *17:9 *127:A 5.6525
9 *17:7 *128:A 5.6525
10 *17:3 *124:Q 5.6525
*END

*D_NET *33 0.00873532

*CONN
*I *169:Q O *C 64.3 15.88 *L 0 *D NOR2XL
*I *122:A I *C 13.16 35 *L 0.00243 *D CLKBUFX4

*CAP
1 *169:Q 0.000161526
2 *33:2 0.000684711
3 *33:3 0.000165948
4 *33:4 0.00772313

*RES
1 *122:A *33:4 16.7922
2 *169:Q *33:2 1.05257
3 *33:2 *33:3 8.3414
4 *33:3 *33:4 45.5635
*END

*D_NET *86 0.0198618

*CONN
*I *153:B I *C 73.64 15.96 *L 0.00142 *D NOR2XL
*I *152:B I *C 57.4 46.2 *L 0.00142 *D NOR2XL
*I *151:B I *C 46.76 15.96 *L 0.00142 *D NOR2XL
*I *148:B I *C 17.64 36.12 *L 0.00142 *D NOR2XL
*I *132:Q O *C 60.06 39.9 *L 0 *D NAND2XL

*CAP
1 *151:B 0.000134514
2 *148:B 0.000252401
3 *132:Q 0.000377666
4 *86:5 0.000727117
5 *86:6 0.000185014
6 *86:7 0.000100401
7 *86:8 0.00111213
8 *86:9 0.000149991
9 *86:10 0.000125419
10 *86:11 0.000147236
11 *86:12 0.00109871
12 *86:13 9.24922e-05
13 *86:14 0.00160097
14 *86:15 0.000842749
15 *86:16 0.000131534
16 *86:17 0.000632623
17 *86:18 0.000107443
18 *86:19 0.000999584
19 *86:20 0.00105331
20 *86:21 0.000193135
21 *86:22 8.09715e-05
22 *86:23 0.00110646
23 *86:24 0.000142414
24 *86:25 0.00139599
25 *86:26 0.000353078
26 *86:27 0.000591694
27 *86:28 0.000176451
28 *86:29 0.000120072
29 *86:30 0.000458609
30 *86:31 0.000873097
31 *86:32 8.04587e-05
32 *86:33 0.000146088
33 *86:34 0.000233053
34 *86:35 0.000231492
35 *86:36 0.000753608
36 *86:37 6.48852e-05
37 *86:38 0.000362883
38 *86:39 6.25009e-05
39 *86:40 0.00114297
40 *86:41 0.00133873
41 *86:42 8.18812e-05

*RES
1 *151:B *86:16 1.14279
2 *86:15 *86:16 13.9228
3 *86:30 *86:43 1.909
4 *86:22 *86:23 8.14241
5 *86:37 *86:38 1.5843
6 *86:44 *86:26 1.09768
7 *86:7 *86:8 8.69125
8 *86:45 *86:15 1.09768
9 *86:11 *86:12 5.48842
10 *132:Q *86:30 7.18901
11 *86:11 *86:31 7.11795
12 *86:39 *86:40 6.96209
13 *86:10 *86:13 0.605457
14 *86:18 *86:19 4.93958
15 *86:32 *86:33 0.636692
16 *86:36 *86:37 0.313064
17 *86:21 *86:22 0.331036
18 *86:25 *86:44 1.1543
19 *86:6 *86:7 0.605457
20 *86:28 *86:29 0.96032
21 *86:46 *86:17 5.3982
22 *86:14 *86:45 0.605457
23 *148:B *86:27 2.24048
24 *86:35 *86:42 1.14074
25 *86:43 *86:31 2.26342
26 *86:20 *86:21 1.09768
27 *86:47 *86:41 8.12611
28 *86:47 *86:40 0.313064
29 *86:17 *86:18 0.605457
30 *86:5 *86:6 1.09768
31 *86:9 *86:10 1.00747
32 *86:24 *86:25 10.3378
33 *86:48 *86:35 0.313064
34 *86:13 *86:14 11.9843
35 *86:19 *86:20 15.8435
36 *86:38 *86:39 0.313064
37 *86:48 *86:36 4.27319
38 *153:B *86:5 13.9939
39 *86:49 *86:9 1.09768
40 *86:12 *86:46 0.605457
41 *86:23 *86:24 0.879878
42 *86:8 *86:49 0.605457
43 *86:26 *86:27 15.0752
44 *86:41 *86:32 5.6525
45 *86:42 *86:34 5.6525
46 *86:32 *86:28 5.6525
47 *86:34 *86:30 5.6525
48 *86:31 *152:B 5.6525
49 *86:28 *86:9 5.6525
*END

*D_NET *40 0.00760102

*CONN
*P *40 O *C 32.2 0 *L 0
*I *110:Q O *C 50.93 46.6 *L 0 *D CLKBUFX3

*CAP
1 *40 0.000373587
2 *40:2 0.000647567
3 *40:3 0.00249964
4 *40:4 0.00408023

*RES
1 *110:Q *40:2 7.57314
2 *40:3 *40:4 34.4621
3 *40:2 *40:3 18.7839
4 *40:4 *40 5.6525
*END

*D_NET *56 0.00691763

*CONN
*P *56 O *C 50.12 0 *L 0
*I *109:Q O *C 54.85 46.6 *L 0 *D CLKBUFX3

*CAP
1 *56 0.000285283
2 *56:2 0.00153532
3 *56:3 0.000932887
4 *56:4 0.00416414

*RES
1 *109:Q *56:2 11.0303
2 *56:3 *56:4 30.9339
3 *56:2 *56:3 8.79659
4 *56:4 *56 5.6525
*END

*D_NET *2 0.00660598

*CONN
*I *140:Q O *C 73.26 25.96 *L 0 *D NOR2XL
*I *92:A I *C 24.36 24.92 *L 0.00231 *D CLKBUFX3

*CAP
1 *140:Q 9.33594e-05
2 *2:2 0.000172636
3 *2:3 0.000167313
4 *2:4 0.000246493
5 *2:5 5.66198e-05
6 *2:6 0.00586956

*RES
1 *2:2 *2:6 38.7586
2 *92:A *2:4 11.6891
3 *2:2 *2:3 0.636692
4 *2:4 *2:5 0.252564
5 *2:6 *2:4 5.6525
6 *2:2 *140:Q 5.6525
*END

*D_NET *18 0.00267034

*CONN
*I *141:Q O *C 43.22 25.96 *L 0 *D NOR2XL
*I *107:A I *C 46.2 35 *L 0.00231 *D CLKBUFX3

*CAP
1 *141:Q 0.000350896
2 *18:2 0.00148835
3 *18:3 0.000831089

*RES
1 *107:A *18:2 17.451
2 *141:Q *18:3 6.34969
3 *18:2 *18:3 13.2612
*END

*D_NET *87 0.0114768

*CONN
*I *169:B I *C 64.68 15.96 *L 0.00142 *D NOR2XL
*I *167:B I *C 37.8 26.04 *L 0.00142 *D NOR2XL
*I *156:B I *C 60.76 36.12 *L 0.00142 *D NOR2XL
*I *154:B I *C 55.72 15.96 *L 0.00142 *D NOR2XL
*I *134:Q O *C 58.1 39.9 *L 0 *D NAND2XL

*CAP
1 *169:B 0.000456565
2 *167:B 0.000417649
3 *154:B 0.000367201
4 *87:5 0.00016742
5 *87:6 0.000425741
6 *87:7 0.000651953
7 *87:8 0.000981221
8 *87:9 0.000137176
9 *87:10 0.000198504
10 *87:11 8.27075e-05
11 *87:12 0.00178626
12 *87:13 0.000858506
13 *87:14 0.000151743
14 *87:15 0.000431223
15 *87:16 0.000187766
16 *87:17 0.00131203
17 *87:18 0.00194192
18 *87:19 0.000921165

*RES
1 *87:15 *87:16 1.08132
2 *87:10 *87:17 6.75018
3 *87:7 *87:9 0.605457
4 *87:16 *87:18 4.21377
5 *87:5 *87:6 1.05257
6 *169:B *87:5 12.8415
7 *167:B *87:14 3.33816
8 *87:11 *87:12 11.9843
9 *87:17 *87:19 2.2337
10 *87:17 *87:18 6.07499
11 *87:12 *87:20 0.331036
12 *87:6 *87:21 0.605457
13 *87:20 *87:13 1.09768
14 *134:Q *87:15 7.24844
15 *87:8 *87:18 10.6823
16 *87:21 *87:7 5.3982
17 *156:B *87:8 14.7622
18 *87:10 *87:11 0.331036
19 *87:9 *87:19 7.84787
20 *87:13 *87:14 13.9228
21 *154:B *87:19 7.18901
*END

*D_NET *41 0.00446225

*CONN
*P *41 O *C 33.32 0 *L 0
*I *92:Q O *C 25.17 26.44 *L 0 *D CLKBUFX3

*CAP
1 *41 0.000255403
2 *92:Q 6.8468e-05
3 *41:2 0.000133261
4 *41:3 0.000202695
5 *41:4 0.00364734
6 *41:5 0.000155084

*RES
1 *41:2 *41:3 0.697192
2 *41:4 *41:5 16.0623
3 *41:2 *41:4 15.9856
4 *41 *41:3 5.6525
5 *41:5 *92:Q 5.6525
*END

*D_NET *57 0.0085753

*CONN
*P *57 O *C 51.24 0 *L 0
*I *95:Q O *C 75.57 36.52 *L 0 *D CLKBUFX3

*CAP
1 *57 0.000285823
2 *57:2 0.000277117
3 *57:3 0.000204757
4 *57:4 0.00242124
5 *57:5 0.000848168
6 *57:6 0.00113178
7 *57:7 0.00340641

*RES
1 *57:5 *57:6 4.6806
2 *57:4 *57:8 11.979
3 *57:2 *57:3 0.864288
4 *57:4 *57:5 16.2276
5 *57:6 *57:7 24.4037
6 *57:7 *57 5.6525
7 *57:8 *57:2 5.6525
8 *57:2 *95:Q 5.6525
*END

*D_NET *3 0.00813646

*CONN
*I *148:Q O *C 17.26 36.04 *L 0 *D NOR2XL
*I *93:A I *C 57.96 14.84 *L 0.00231 *D CLKBUFX3

*CAP
1 *148:Q 0.000181295
2 *93:A 0.00126877
3 *3:2 0.000150977
4 *3:3 0.00529945
5 *3:4 0.00028055
6 *3:5 0.000107466
7 *3:6 0.000847948

*RES
1 *3:5 *3:6 10.191
2 *93:A *3:2 17.451
3 *148:Q *3:3 7.50208
4 *3:3 *3:5 32.9967
5 *3:6 *3:4 5.6525
6 *3:4 *3:2 5.6525
*END

*D_NET *19 0.00309506

*CONN
*I *152:Q O *C 57.78 46.12 *L 0 *D NOR2XL
*I *108:A I *C 38.36 45.08 *L 0.00231 *D CLKBUFX3

*CAP
1 *19:2 0.000247086
2 *19:3 0.000178583
3 *19:4 0.00266939

*RES
1 *108:A *19:4 12.0733
2 *19:2 *19:3 0.636692
3 *19:4 *19:5 19.168
4 *19:5 *19:2 5.6525
5 *19:2 *152:Q 5.6525
*END

*D_NET *72 0.00146448

*CONN
*I *174:A I *C 71.1 39.19 *L 0.0012 *D NOR2XL
*I *173:Q O *C 72.86 46.42 *L 0 *D INVXL
*I *125:B I *C 73.06 40.16 *L 0.00239 *D AND2X3

*CAP
1 *174:A 0.000247296
2 *173:Q 0.000118064
3 *72:3 9.79102e-05
4 *72:4 0.000966349
5 *72:5 3.48606e-05

*RES
1 *125:B *72:4 12.4574
2 *174:A *72:5 6.48018
3 *72:4 *72:5 0.313064
4 *72:4 *72:6 2.70248
5 *173:Q *72:3 1.05257
6 *72:6 *72:3 5.6525
*END

*D_NET *88 0.0129868

*CONN
*I *170:B I *C 68.04 46.2 *L 0.00142 *D NOR2XL
*I *160:B I *C 58.52 36.12 *L 0.00142 *D NOR2XL
*I *157:B I *C 37.8 15.96 *L 0.00142 *D NOR2XL
*I *143:B I *C 54.04 36.12 *L 0.00142 *D NOR2XL
*I *138:Q O *C 69.58 29.82 *L 0 *D NAND2XL

*CAP
1 *157:B 0.000144171
2 *143:B 6.52536e-05
3 *138:Q 0.000300926
4 *88:5 0.00311494
5 *88:6 0.000845873
6 *88:7 5.44236e-05
7 *88:8 0.000101544
8 *88:9 0.00158829
9 *88:10 0.00184996
10 *88:11 0.00285468
11 *88:12 0.000710926
12 *88:13 0.00135581

*RES
1 *88:8 *88:10 15.2173
2 *88:5 *88:6 6.02046
3 *138:Q *88:5 2.15026
4 *88:11 *88:12 14.307
5 *143:B *88:8 0.503733
6 *157:B *88:12 1.14279
7 *88:9 *88:10 4.84936
8 *88:6 *88:7 0.53204
9 *88:6 *88:13 12.4957
10 *88:7 *88:9 3.29305
11 *88:14 *88:11 21.9988
12 *170:B *88:5 21.7475
13 *160:B *88:9 15.1463
14 *88:13 *88:14 5.6525
*END

*D_NET *42 0.0071788

*CONN
*P *42 O *C 34.44 0 *L 0
*I *111:Q O *C 43.09 46.6 *L 0 *D CLKBUFX3

*CAP
1 *42 0.000290397
2 *42:2 0.00128927
3 *42:3 0.000591472
4 *42:4 0.00382248
5 *42:5 0.000796223
6 *42:6 0.00038896

*RES
1 *42:5 *42:6 7.88621
2 *111:Q *42:2 11.0303
3 *42:2 *42:3 7.26008
4 *42:4 *42:5 4.29647
5 *42:3 *42:4 34.2816
6 *42:6 *42 5.6525
*END

*D_NET *58 0.00813399

*CONN
*P *58 O *C 52.36 0 *L 0
*I *112:Q O *C 47.01 46.6 *L 0 *D CLKBUFX3

*CAP
1 *58 0.000374616
2 *112:Q 0.0002193
3 *58:2 0.000140773
4 *58:3 0.000181272
5 *58:4 0.00446825
6 *58:5 0.00274978

*RES
1 *112:Q *58:2 1.69163
2 *58:3 *58:4 21.5112
3 *58:2 *58:5 14.8005
4 *58:3 *58:5 13.6808
5 *58 *58:4 5.6525
*END

*D_NET *4 0.00380241

*CONN
*I *154:Q O *C 55.34 15.88 *L 0 *D NOR2XL
*I *94:A I *C 66.92 24.92 *L 0.00231 *D CLKBUFX3

*CAP
1 *154:Q 0.000136908
2 *4:2 0.00153767
3 *4:3 0.00145267
4 *4:4 0.000161037
5 *4:5 0.000141736
6 *4:6 0.000169435
7 *4:7 0.000202954

*RES
1 *154:Q *4:3 6.79529
2 *4:5 *4:6 0.852648
3 *94:A *4:2 17.8352
4 *4:3 *4:7 13.022
5 *4:3 *4:4 0.636692
6 *4:7 *4:8 6.42076
7 *4:8 *4:5 5.6525
8 *4:5 *4:2 5.6525
*END

*D_NET *20 0.00390076

*CONN
*I *156:Q O *C 61.14 36.04 *L 0 *D NOR2XL
*I *109:A I *C 54.04 45.08 *L 0.00231 *D CLKBUFX3

*CAP
1 *20:2 0.000359835
2 *20:3 0.00216648
3 *20:4 0.000255585
4 *20:5 0.000271107
5 *20:6 8.75738e-05
6 *20:7 0.000760176

*RES
1 *20:4 *20:5 0.96032
2 *109:A *20:3 13.9939
3 *20:3 *20:6 10.6817
4 *20:8 *20:2 0.48016
5 *20:6 *20:7 9.80685
6 *20:7 *20:4 5.6525
7 *20:4 *20:8 11.305
8 *20:8 *156:Q 5.6525
*END

*D_NET *73 0.00539434

*CONN
*I *172:Q O *C 59.42 38.7 *L 0 *D INVXL
*I *138:B I *C 69.72 29.4 *L 0.00154 *D NAND2XL
*I *135:B I *C 74.76 29.4 *L 0.00154 *D NAND2XL
*I *134:B I *C 57.96 39.48 *L 0.00154 *D NAND2XL
*I *133:B I *C 64.68 35.56 *L 0.00154 *D NAND2XL

*CAP
1 *172:Q 0.0001273
2 *138:B 0.000100123
3 *135:B 0.000136616
4 *134:B 7.67296e-05
5 *73:5 0.00179481
6 *73:6 0.000135905
7 *73:7 0.00013426
8 *73:8 0.000184079
9 *73:9 0.000255074
10 *73:10 8.90796e-05
11 *73:11 0.000188887
12 *73:12 0.00129051
13 *73:13 0.00031117
14 *73:14 0.000569801

*RES
1 *135:B *73:15 0.548842
2 *73:7 *73:8 0.636692
3 *73:11 *73:12 14.8332
4 *138:B *73:5 4.93958
5 *172:Q *73:16 1.05257
6 *73:11 *73:13 1.53651
7 *73:16 *73:6 0.605457
8 *172:Q *73:12 12.0733
9 *134:B *73:6 0.503733
10 *73:5 *73:13 9.80684
11 *73:9 *73:10 0.48016
12 *73:17 *73:14 3.14409
13 *73:17 *73:7 5.6525
14 *73:14 *73:9 5.6525
15 *73:9 *138:B 5.6525
16 *73:13 *133:B 5.6525
17 *73:7 *73:15 5.6525
*END

*D_NET *89 0.0144974

*CONN
*I *163:B I *C 30.52 46.2 *L 0.00142 *D NOR2XL
*I *161:B I *C 28.84 26.04 *L 0.00142 *D NOR2XL
*I *146:B I *C 49.56 36.12 *L 0.00142 *D NOR2XL
*I *144:B I *C 16.52 46.2 *L 0.00142 *D NOR2XL
*I *135:Q O *C 74.62 29.82 *L 0 *D NAND2XL

*CAP
1 *163:B 6.84007e-05
2 *161:B 0.000148277
3 *146:B 0.000137434
4 *144:B 0.00029721
5 *135:Q 0.000559282
6 *89:5 0.000508496
7 *89:6 8.00619e-05
8 *89:7 0.000158089
9 *89:8 0.000124764
10 *89:9 0.000309744
11 *89:10 0.000169875
12 *89:11 0.000383978
13 *89:12 0.000197774
14 *89:13 0.000186451
15 *89:14 0.000173818
16 *89:15 0.000210104
17 *89:16 0.00108701
18 *89:17 0.000411585
19 *89:18 0.00247468
20 *89:19 5.45134e-05
21 *89:20 0.000165618
22 *89:21 5.25318e-05
23 *89:22 0.00364218
24 *89:23 0.00105371
25 *89:24 0.00184181

*RES
1 *89:17 *89:21 6.80488
2 *89:9 *89:16 7.11795
3 *161:B *89:8 1.05257
4 *163:B *89:7 0.503733
5 *89:5 *89:25 6.44465
6 *89:21 *89:24 14.1033
7 *89:18 *89:26 9.21907
8 *89:18 *89:27 0.431912
9 *89:12 *89:13 0.54066
10 *89:25 *89:11 0.313064
11 *89:27 *89:24 9.10965
12 *89:19 *89:20 0.636692
13 *144:B *89:9 2.78932
14 *89:10 *89:11 1.52487
15 *89:23 *89:24 6.91431
16 *135:Q *89:5 4.34562
17 *89:14 *89:15 0.96032
18 *89:10 *89:22 20.669
19 *89:16 *89:21 12.9509
20 *146:B *89:6 1.05257
21 *89:23 *89:19 5.6525
22 *89:19 *89:14 5.6525
23 *89:26 *89:12 5.6525
24 *89:22 *89:13 5.6525
25 *89:12 *89:6 5.6525
26 *89:14 *89:8 5.6525
27 *89:17 *89:7 5.6525
*END

*D_NET *43 0.00411839

*CONN
*P *43 O *C 35.56 0 *L 0
*I *98:Q O *C 34.13 26.44 *L 0 *D CLKBUFX3

*CAP
1 *43 0.000280872
2 *98:Q 0.00018805
3 *43:2 0.000132825
4 *43:3 0.00351664

*RES
1 *98:Q *43:2 1.69163
2 *43:2 *43:3 22.4831
3 *43 *43:3 5.6525
*END

*D_NET *59 0.00855983

*CONN
*P *59 O *C 53.48 0 *L 0
*I *96:Q O *C 22.93 36.52 *L 0 *D CLKBUFX3

*CAP
1 *59 0.000307676
2 *96:Q 8.02242e-05
3 *59:2 0.00446411
4 *59:3 0.000124888
5 *59:4 8.42262e-05
6 *59:5 0.00349871

*RES
1 *59:4 *59:5 26.7085
2 *59:2 *59:3 2.61783
3 *59:2 *59:4 25.6982
4 *59:5 *59 5.6525
5 *59:3 *96:Q 5.6525
*END

*D_NET *5 0.00781606

*CONN
*I *157:Q O *C 37.42 15.88 *L 0 *D NOR2XL
*I *95:A I *C 74.76 35 *L 0.00231 *D CLKBUFX3

*CAP
1 *157:Q 0.000147368