*SPEF "IEEE 1481-1998"
*DESIGN "fet_dec"
*DATE "Tue Aug 29 14:46:36 2017"
*VENDOR "Cadence Design Systems, Inc."
*PROGRAM "Innovus"
*VERSION "15.28-s017_1"
*DESIGN_FLOW "PIN_CAP NONE" "NAME_SCOPE LOCAL"
*DIVIDER /
*DELIMITER :
*BUS_DELIMITER []
*T_UNIT 1 NS
*C_UNIT 1 PF
*R_UNIT 1 OHM
*L_UNIT 1 HENRY

// MMMC spef file for corner 'ams_rc_corner_typ'

*NAME_MAP

*1 CTS_160
*2 CTS_159
*3 CTS_158
*4 CTS_157
*5 CTS_156
*6 CTS_155
*7 CTS_154
*8 CTS_153
*9 CTS_152
*10 CTS_151
*11 CTS_150
*12 CTS_149
*13 CTS_148
*14 CTS_147
*15 CTS_146
*16 CTS_145
*17 sll_18_12/CTS_135
*18 CTS_144
*19 CTS_143
*20 CTS_142
*21 CTS_141
*22 CTS_140
*23 CTS_139
*24 CTS_138
*25 CTS_137
*26 CTS_136
*27 CTS_135
*28 CTS_134
*29 CTS_133
*30 CTS_132
*31 CTS_131
*32 CTS_130
*33 CTS_129
*34 in[4]
*35 in[3]
*36 in[2]
*37 in[1]
*38 in[0]
*39 out[31]
*40 out[30]
*41 out[29]
*42 out[28]
*43 out[27]
*44 out[26]
*45 out[25]
*46 out[24]
*47 out[23]
*48 out[22]
*49 out[21]
*50 out[20]
*51 out[19]
*52 out[18]
*53 out[17]
*54 out[16]
*55 out[15]
*56 out[14]
*57 out[13]
*58 out[12]
*59 out[11]
*60 out[10]
*61 out[9]
*62 out[8]
*63 out[7]
*64 out[6]
*65 out[5]
*66 out[4]
*67 out[3]
*68 out[2]
*69 out[1]
*70 out[0]
*71 logic_1_1_net
*72 sll_18_12/n_0
*73 sll_18_12/n_1
*74 sll_18_12/n_2
*75 sll_18_12/n_3
*76 sll_18_12/n_4
*77 sll_18_12/n_5
*78 sll_18_12/n_7
*79 sll_18_12/n_8
*80 sll_18_12/n_9
*81 sll_18_12/n_10
*82 sll_18_12/n_11
*83 sll_18_12/n_12
*84 sll_18_12/n_13
*85 sll_18_12/n_15
*86 sll_18_12/n_17
*87 sll_18_12/n_29
*88 sll_18_12/n_31
*89 sll_18_12/n_34
*90 sll_18_12/n_36
*91 CTS_ccl_BUF_in_0__G0_L3_16
*92 CTS_ccl_BUF_in_0__G0_L3_15
*93 CTS_ccl_BUF_in_0__G0_L3_14
*94 CTS_ccl_BUF_in_0__G0_L3_13
*95 CTS_ccl_BUF_in_0__G0_L3_12
*96 CTS_ccl_BUF_in_0__G0_L3_11
*97 CTS_ccl_BUF_in_0__G0_L3_10
*98 CTS_ccl_BUF_in_0__G0_L3_9
*99 CTS_ccl_BUF_in_0__G0_L3_8
*100 CTS_ccl_BUF_in_0__G0_L3_7
*101 CTS_ccl_BUF_in_0__G0_L3_6
*102 CTS_ccl_BUF_in_0__G0_L3_5
*103 CTS_ccl_BUF_in_0__G0_L3_4
*104 CTS_ccl_BUF_in_0__G0_L3_3
*105 CTS_ccl_BUF_in_0__G0_L3_2
*106 CTS_ccl_BUF_in_0__G0_L3_1
*107 CTS_ccl_BUF_in_0__G0_L4_16
*108 CTS_ccl_BUF_in_0__G0_L4_15
*109 CTS_ccl_BUF_in_0__G0_L4_14
*110 CTS_ccl_BUF_in_0__G0_L4_13
*111 CTS_ccl_BUF_in_0__G0_L4_12
*112 CTS_ccl_BUF_in_0__G0_L4_11
*113 CTS_ccl_BUF_in_0__G0_L4_10
*114 CTS_ccl_BUF_in_0__G0_L4_9
*115 CTS_ccl_BUF_in_0__G0_L4_8
*116 CTS_ccl_BUF_in_0__G0_L4_7
*117 CTS_ccl_BUF_in_0__G0_L4_6
*118 CTS_ccl_BUF_in_0__G0_L4_5
*119 CTS_ccl_BUF_in_0__G0_L4_4
*120 CTS_ccl_BUF_in_0__G0_L4_3
*121 CTS_ccl_BUF_in_0__G0_L4_2
*122 CTS_ccl_BUF_in_0__G0_L4_1
*123 tie_1_cell
*124 sll_18_12/CTS_cex_INV_in_0__G0_L1_1
*125 sll_18_12/g200
*126 sll_18_12/g202
*127 sll_18_12/g348
*128 sll_18_12/g349
*129 sll_18_12/g350
*130 sll_18_12/g351
*131 sll_18_12/g191
*132 sll_18_12/g192
*133 sll_18_12/g193
*134 sll_18_12/g194
*135 sll_18_12/g195
*136 sll_18_12/g196
*137 sll_18_12/g197
*138 sll_18_12/g198
*139 sll_18_12/g316
*140 sll_18_12/g317
*141 sll_18_12/g318
*142 sll_18_12/g319
*143 sll_18_12/g320
*144 sll_18_12/g321
*145 sll_18_12/g322
*146 sll_18_12/g323
*147 sll_18_12/g324
*148 sll_18_12/g325
*149 sll_18_12/g326
*150 sll_18_12/g327
*151 sll_18_12/g328
*152 sll_18_12/g329
*153 sll_18_12/g330
*154 sll_18_12/g331
*155 sll_18_12/g332
*156 sll_18_12/g333
*157 sll_18_12/g334
*158 sll_18_12/g335
*159 sll_18_12/g336
*160 sll_18_12/g337
*161 sll_18_12/g338
*162 sll_18_12/g339
*163 sll_18_12/g340
*164 sll_18_12/g341
*165 sll_18_12/g342
*166 sll_18_12/g343
*167 sll_18_12/g344
*168 sll_18_12/g345
*169 sll_18_12/g346
*170 sll_18_12/g347
*171 sll_18_12/g123
*172 sll_18_12/g203
*173 sll_18_12/g204
*174 sll_18_12/g199
*175 sll_18_12/g201


*PORTS

*34 I *C 50.12 59.92
*35 I *C 49 59.92
*36 I *C 47.88 59.92
*37 I *C 46.76 59.92
*38 I *C 45.64 59.92
*39 O *C 31.08 0
*40 O *C 32.2 0
*41 O *C 33.32 0
*42 O *C 34.44 0
*43 O *C 35.56 0
*44 O *C 36.68 0
*45 O *C 37.8 0
*46 O *C 38.92 0
*47 O *C 40.04 0
*48 O *C 41.16 0
*49 O *C 42.28 0
*50 O *C 43.4 0
*51 O *C 44.52 0
*52 O *C 45.64 0
*53 O *C 46.76 0
*54 O *C 47.88 0
*55 O *C 49 0
*56 O *C 50.12 0
*57 O *C 51.24 0
*58 O *C 52.36 0
*59 O *C 53.48 0
*60 O *C 54.6 0
*61 O *C 55.72 0
*62 O *C 56.84 0
*63 O *C 57.96 0
*64 O *C 59.08 0
*65 O *C 60.2 0
*66 O *C 61.32 0
*67 O *C 62.44 0
*68 O *C 63.56 0
*69 O *C 64.68 0
*70 O *C 65.8 0


*D_NET *41 0.00431928

*CONN
*P *41 O *C 33.32 0 *L 0
*I *92:Q O *C 25.17 26.44 *L 0 *D CLKBUFX3

*CAP
1 *41 0.000255044
2 *92:Q 8.78024e-05
3 *41:2 0.000136764
4 *41:3 0.000200387
5 *41:4 0.00348839
6 *41:5 0.000150893

*RES
1 *41:2 *41:3 0.388462
2 *41:4 *41:5 8.37411
3 *41:2 *41:4 4.98052
4 *41 *41:3 1.287
5 *41:5 *92:Q 1.287
*END

*D_NET *57 0.00859742

*CONN
*P *57 O *C 51.24 0 *L 0
*I *95:Q O *C 75.57 36.52 *L 0 *D CLKBUFX3

*CAP
1 *57 0.000292963
2 *57:2 0.000272245
3 *57:3 0.000211221
4 *57:4 0.00245008
5 *57:5 0.000821148
6 *57:6 0.00108865
7 *57:7 0.00346111

*RES
1 *57:5 *57:6 2.40652
2 *57:4 *57:8 6.19971
3 *57:2 *57:3 0.449193
4 *57:4 *57:5 5.15852
5 *57:6 *57:7 11.0586
6 *57:7 *57 1.287
7 *57:8 *57:2 1.287
8 *57:2 *95:Q 1.287
*END

*D_NET *3 0.0081125

*CONN
*I *148:Q O *C 17.26 36.04 *L 0 *D NOR2XL
*I *93:A I *C 57.96 14.84 *L 0.00225 *D CLKBUFX3

*CAP
1 *148:Q 0.000174747
2 *93:A 0.0012443
3 *3:2 0.000154654
4 *3:3 0.00529135
5 *3:4 0.000301638
6 *3:5 0.000119972
7 *3:6 0.000825836

*RES
1 *3:5 *3:6 3.67188
2 *93:A *3:2 5.76826
3 *148:Q *3:3 2.27439
4 *3:3 *3:5 15.4724
5 *3:6 *3:4 1.287
6 *3:4 *3:2 1.287
*END

*D_NET *19 0.00311874

*CONN
*I *152:Q O *C 57.78 46.12 *L 0 *D NOR2XL
*I *108:A I *C 38.36 45.08 *L 0.00225 *D CLKBUFX3

*CAP
1 *19:2 0.000243712
2 *19:3 0.000171923
3 *19:4 0.0027031

*RES
1 *108:A *19:4 2.97328
2 *19:2 *19:3 0.343962
3 *19:4 *19:5 8.28527
4 *19:5 *19:2 1.287
5 *19:2 *152:Q 1.287
*END

*D_NET *72 0.00140206

*CONN
*I *174:A I *C 71.1 39.19 *L 0.0012 *D NOR2XL
*I *173:Q O *C 72.86 46.42 *L 0 *D INVXL
*I *125:B I *C 73.06 40.16 *L 0.00233 *D AND2X3

*CAP
1 *174:A 0.000236307
2 *173:Q 0.000122386
3 *72:3 0.000104712
4 *72:4 0.000905018
5 *72:5 3.36396e-05

*RES
1 *125:B *72:4 3.17292
2 *174:A *72:5 1.69105
3 *72:4 *72:5 0.188821
4 *72:4 *72:6 1.39149
5 *173:Q *72:3 0.606736
6 *72:6 *72:3 1.287
*END

*D_NET *88 0.0129642

*CONN
*I *170:B I *C 68.04 46.2 *L 0.00141 *D NOR2XL
*I *160:B I *C 58.52 36.12 *L 0.00141 *D NOR2XL
*I *157:B I *C 37.8 15.96 *L 0.00141 *D NOR2XL
*I *143:B I *C 54.04 36.12 *L 0.00141 *D NOR2XL
*I *138:Q O *C 69.58 29.82 *L 0 *D NAND2XL

*CAP
1 *157:B 0.000150125
2 *143:B 6.78809e-05
3 *138:Q 0.00030155
4 *88:5 0.00316541
5 *88:6 0.000835389
6 *88:7 5.73239e-05
7 *88:8 0.000106206
8 *88:9 0.00158778
9 *88:10 0.00183226
10 *88:11 0.00286212
11 *88:12 0.000701422
12 *88:13 0.00129672

*RES
1 *88:8 *88:10 4.58123
2 *88:5 *88:6 3.37388
3 *138:Q *88:5 1.22188
4 *88:11 *88:12 4.16031
5 *143:B *88:8 0.299164
6 *157:B *88:12 0.623552
7 *88:9 *88:10 2.75133
8 *88:6 *88:7 0.298156
9 *88:6 *88:13 4.86972
10 *88:7 *88:9 1.84543
11 *88:14 *88:11 12.3113
12 *170:B *88:5 7.97514
13 *160:B *88:9 4.57041
14 *88:13 *88:14 1.287
*END

*D_NET *43 0.00405123

*CONN
*P *43 O *C 35.56 0 *L 0
*I *98:Q O *C 34.13 26.44 *L 0 *D CLKBUFX3

*CAP
1 *43 0.000288548
2 *98:Q 0.000189662
3 *43:2 0.000136176
4 *43:3 0.00343684

*RES
1 *98:Q *43:2 0.931124
2 *43:2 *43:3 10.0604
3 *43 *43:3 1.287
*END

*D_NET *59 0.00854064

*CONN
*P *59 O *C 53.48 0 *L 0
*I *96:Q O *C 22.93 36.52 *L 0 *D CLKBUFX3

*CAP
1 *59 0.000309938
2 *96:Q 8.65139e-05
3 *59:2 0.00444147
4 *59:3 0.000121599
5 *59:4 8.95138e-05
6 *59:5 0.00349161

*RES
1 *59:4 *59:5 12.2564
2 *59:2 *59:3 1.38667
3 *59:2 *59:4 11.6792
4 *59:5 *59 1.287
5 *59:3 *96:Q 1.287
*END

*D_NET *5 0.0077955

*CONN
*I *157:Q O *C 37.42 15.88 *L 0 *D NOR2XL
*I *95:A I *C 74.76 35 *L 0.00225 *D CLKBUFX3

*CAP
1 *157:Q 0.000150729
2 *5:2 0.000137031
3 *5:3 0.00302094
4 *5:4 0.0044868

*RES
1 *157:Q *5:2 0.623552
2 *95:A *5:3 10.36
3 *5:3 *5:4 15.5615
4 *5:2 *5:4 1.67546
*END

*D_NET *21 0.00346494

*CONN
*I *158:Q O *C 28.66 46.12 *L 0 *D NOR2XL
*I *110:A I *C 50.12 45.08 *L 0.00225 *D CLKBUFX3

*CAP
1 *158:Q 0.000382082
2 *110:A 0.000220752
3 *21:2 0.000179285
4 *21:3 0.00268282

*RES
1 *110:A *21:2 2.97328
2 *158:Q *21:3 1.67546
3 *21:2 *21:3 10.1712
*END

*D_NET *74 0.0020811

*CONN
*I *134:A I *C 56.84 40.04 *L 0.00143 *D NAND2XL
*I *131:A I *C 50.68 40.04 *L 0.00143 *D NAND2XL
*I *126:Q O *C 54.98 40.64 *L 0 *D AND2X3

*CAP
1 *131:A 0.00029069
2 *126:Q 0.000251373
3 *74:3 0.000127662
4 *74:4 0.000271846
5 *74:5 8.39396e-05
6 *74:6 0.00105559

*RES
1 *74:6 *74:7 3.08918
2 *126:Q *134:A 0.922716
3 *131:A *74:6 1.88592
4 *126:Q *74:3 0.299164
5 *74:4 *74:5 0.249552
6 *74:7 *74:4 1.287
7 *74:4 *74:3 1.287
*END

*D_NET *90 0.0138883

*CONN
*I *166:B I *C 42.84 36.12 *L 0.00141 *D NOR2XL
*I *164:B I *C 64.68 26.04 *L 0.00141 *D NOR2XL
*I *150:B I *C 19.88 15.96 *L 0.00141 *D NOR2XL
*I *147:B I *C 77 46.2 *L 0.00141 *D NOR2XL
*I *133:Q O *C 64.82 35.14 *L 0 *D NAND2XL

*CAP
1 *164:B 0.00038479
2 *150:B 0.000387023
3 *90:5 0.00410287
4 *90:6 0.000901475
5 *90:7 0.00121468
6 *90:8 9.03698e-05
7 *90:9 0.000268558
8 *90:10 0.000365674
9 *90:11 0.000347981
10 *90:12 0.000148757
11 *90:13 0.000963651
12 *90:14 0.000625722
13 *90:15 6.72884e-05
14 *90:16 0.000871838
15 *90:17 0.00164626
16 *90:18 0.000398885
17 *90:19 0.00110245

*RES
1 *90:14 *90:15 0.188821
2 *90:20 *90:16 0.188821
3 *90:21 *90:5 11.3886
4 *90:11 *90:17 5.68993
5 *90:22 *90:18 0.249552
6 *164:B *90:23 2.09034
7 *166:B *90:5 5.16934
8 *90:7 *90:8 0.305558
9 *90:15 *90:16 2.39442
10 *90:5 *90:6 3.67405
11 *147:B *90:11 1.68628
12 *150:B *90:10 1.85384
13 *90:9 *90:14 2.87808
14 *90:8 *90:9 0.615144
15 *90:23 *90:12 0.188821
16 *90:13 *90:24 1.79677
17 *90:6 *90:25 0.305558
18 *90:25 *90:7 6.44219
19 *90:10 *90:20 1.87987
20 *90:12 *90:13 0.193592
21 *90:17 *90:19 5.06936
22 *90:19 *90:18 1.287
23 *90:18 *90:24 1.287
24 *90:24 *133:Q 1.287
25 *90:13 *90:21 1.287
*END

*D_NET *45 0.00591665

*CONN
*P *45 O *C 37.8 0 *L 0
*I *93:Q O *C 58.77 16.36 *L 0 *D CLKBUFX3

*CAP
1 *45 0.000289996
2 *45:2 0.000829893
3 *45:3 0.000967208
4 *45:4 0.00132736
5 *45:5 0.00211796
6 *45:6 0.000384236

*RES
1 *45:5 *45:6 0.787745
2 *93:Q *45:2 2.48485
3 *45:2 *45:3 4.38159
4 *45:4 *45:5 8.17479
5 *45:3 *45:4 3.18344
6 *45 *45:6 1.287
*END

*D_NET *61 0.00440998

*CONN
*P *61 O *C 55.72 0 *L 0
*I *97:Q O *C 43.09 16.36 *L 0 *D CLKBUFX3

*CAP
1 *61 0.000290062
2 *97:Q 8.78159e-05
3 *61:2 0.000164231
4 *61:3 0.000562599
5 *61:4 0.0031573
6 *61:5 0.000147976

*RES
1 *61:2 *61:3 1.18703
2 *61:4 *61:5 3.98201
3 *61:2 *61:4 6.57765
4 *61 *61:3 1.287
5 *61:5 *97:Q 1.287
*END

*D_NET *7 0.00552495

*CONN
*I *164:Q O *C 64.3 25.96 *L 0 *D NOR2XL
*I *97:A I *C 42.28 14.84 *L 0.00225 *D CLKBUFX3

*CAP
1 *164:Q 0.000174662
2 *7:2 0.00184453
3 *7:3 0.00350576

*RES
1 *97:A *7:3 4.17113
2 *164:Q *7:2 5.86793
3 *7:2 *7:3 10.3708
*END

*D_NET *23 0.00427961

*CONN
*I *160:Q O *C 58.9 36.04 *L 0 *D NOR2XL
*I *112:A I *C 46.2 45.08 *L 0.00225 *D CLKBUFX3

*CAP
1 *160:Q 0.000121083
2 *23:2 0.0001626
3 *23:3 0.000202256
4 *23:4 0.000171445
5 *23:5 0.00017078
6 *23:6 0.000324932
7 *23:7 0.00012899
8 *23:8 0.00177641
9 *23:9 0.00122111

*RES
1 *23:2 *23:3 0.343962
2 *23:4 *23:5 0.343962
3 *23:7 *23:9 4.86972
4 *23:7 *23:8 4.80221
5 *23:9 *23:6 1.287
6 *23:6 *23:2 1.287
7 *23:8 *23:4 1.287
8 *23:2 *160:Q 1.287
9 *23:4 *112:A 2.574
*END

*D_NET *76 0.00625003

*CONN
*I *136:A I *C 52.36 40.04 *L 0.00143 *D NAND2XL
*I *135:A I *C 75.88 29.96 *L 0.00143 *D NAND2XL
*I *125:Q O *C 74.02 40.64 *L 0 *D AND2X3

*CAP
1 *136:A 0.000591882
2 *135:A 0.000178211
3 *125:Q 0.000512548
4 *76:3 0.00117556
5 *76:4 0.000157036
6 *76:5 8.74574e-05
7 *76:6 0.000931143
8 *76:7 0.000463126
9 *76:8 0.000313137
10 *76:9 0.00183993

*RES
1 *76:6 *76:9 3.87152
2 *136:A *76:6 2.29603
3 *135:A *76:3 0.931124
4 *76:5 *76:8 1.8751
5 *76:5 *76:7 0.598924
6 *76:3 *76:4 5.75744
7 *76:8 *76:9 4.78057
8 *125:Q *76:4 1.85384
9 *76:7 *125:Q 1.287
*END

*D_NET *46 0.00617958

*CONN
*P *46 O *C 38.92 0 *L 0
*I *108:Q O *C 39.17 46.6 *L 0 *D CLKBUFX3

*CAP
1 *46 0.000291334
2 *46:2 0.0015129
3 *46:3 0.000388194
4 *46:4 0.000268782
5 *46:5 0.0036185
6 *46:6 9.98737e-05

*RES
1 *46:5 *46:6 12.5666
2 *108:Q *46:2 4.6809
3 *46:3 *46:4 0.399283
4 *46:5 *46 1.287
5 *46:6 *46:3 1.287
6 *46:3 *46:2 1.287
*END

*D_NET *62 0.00705266

*CONN
*P *62 O *C 56.84 0 *L 0
*I *114:Q O *C 16.21 16.36 *L 0 *D CLKBUFX3

*CAP
1 *62 0.000293938
2 *114:Q 0.000210717
3 *62:2 0.00013154
4 *62:3 0.000161243
5 *62:4 0.00156361
6 *62:5 0.00469161

*RES
1 *114:Q *62:2 0.931124
2 *62:3 *62:4 3.78237
3 *62:2 *62:5 2.67367
4 *62:3 *62:5 16.1604
5 *62 *62:4 1.287
*END

*D_NET *8 0.00698764

*CONN
*I *165:Q O *C 72.14 36.04 *L 0 *D NOR2XL
*I *98:A I *C 33.32 24.92 *L 0.00225 *D CLKBUFX3

*CAP
1 *165:Q 0.000200109
2 *8:2 0.0016013
3 *8:3 0.00518623

*RES
1 *98:A *8:3 3.37257
2 *165:Q *8:2 5.06936
3 *8:2 *8:3 16.1604
*END

*D_NET *24 0.00939091

*CONN
*I *163:Q O *C 30.9 46.12 *L 0 *D NOR2XL
*I *113:A I *C 79.8 14.84 *L 0.00225 *D CLKBUFX3

*CAP
1 *163:Q 0.00141048
2 *113:A 0.00122533
3 *24:2 0.00421283
4 *24:3 0.000118981
5 *24:4 0.000124169
6 *24:5 7.55674e-05
7 *24:6 0.00222355

*RES
1 *113:A *24:7 5.97872
2 *163:Q *24:2 4.67549
3 *24:2 *24:5 18.6666
4 *24:3 *24:4 0.343962
5 *24:5 *24:6 12.0676
6 *24:6 *24:3 1.287
7 *24:3 *24:7 1.287
*END

*D_NET *77 0.00436616

*CONN
*I *174:Q O *C 70.66 39 *L 0 *D NOR2XL
*I *138:A I *C 70.84 29.96 *L 0.00143 *D NAND2XL
*I *137:A I *C 63 40.04 *L 0.00143 *D NAND2XL

*CAP
1 *174:Q 0.000209122
2 *138:A 0.000386502
3 *137:A 0.000614218
4 *77:3 0.00109246
5 *77:4 0.000169155
6 *77:5 0.000140507
7 *77:6 0.000131317
8 *77:7 0.000140872
9 *77:8 0.0010773
10 *77:9 0.000404711

*RES
1 *77:3 *77:7 3.87152
2 *174:Q *77:4 0.931124
3 *138:A *77:3 1.54627
4 *77:9 *77:10 0.198363
5 *77:5 *77:6 0.305558
6 *77:8 *77:10 2.08557
7 *137:A *77:6 2.75974
8 *77:4 *77:8 2.27439
9 *77:4 *77:5 0.598327
10 *77:7 *77:9 2.08557
*END

*D_NET *48 0.003395

*CONN
*P *48 O *C 41.16 0 *L 0
*I *121:Q O *C 34.13 16.36 *L 0 *D CLKBUFX3

*CAP
1 *48 0.000248898
2 *121:Q 8.88303e-05
3 *48:2 0.000347025
4 *48:3 0.00246456
5 *48:4 0.000151567
6 *48:5 9.41244e-05

*RES
1 *48:3 *48:4 4.78057
2 *48:3 *48:5 3.28341
3 *48:5 *48:2 1.287
4 *48 *48:2 1.287
5 *48:4 *121:Q 1.287
*END

*D_NET *64 0.0100237

*CONN
*P *64 O *C 59.08 0 *L 0
*I *122:Q O *C 13.97 36.42 *L 0 *D CLKBUFX4

*CAP
1 *64 0.000278135
2 *122:Q 8.85857e-05
3 *64:2 0.00016179
4 *64:3 0.00130304
5 *64:4 0.00136994
6 *64:5 0.000134676
7 *64:6 0.00327073
8 *64:7 0.000116552
9 *64:8 0.000164658
10 *64:9 0.000147519
11 *64:10 0.00298806

*RES
1 *64:2 *64:6 2.29603
2 *64:7 *64:10 6.95635
3 *64:4 *64:11 5.29065
4 *64:2 *64:3 2.9838
5 *64:4 *64:5 0.588103
6 *64:6 *64:7 10.0604
7 *64:8 *64:9 0.343962
8 *64:10 *64:8 1.287
9 *64:8 *64:11 1.287
10 *64 *64:3 1.287
11 *64:5 *122:Q 1.287
*END

*D_NET *10 0.0110102

*CONN
*I *145:Q O *C 26.22 36.04 *L 0 *D NOR2XL
*I *100:A I *C 79.24 45.08 *L 0.00236 *D CLKBUFX4

*CAP
1 *10:2 0.000985507
2 *10:3 0.000239403
3 *10:4 0.000155675
4 *10:5 0.00496392
5 *10:6 0.000527562
6 *10:7 0.00413813

*RES
1 *10:5 *10:6 3.96067
2 *100:A *10:2 3.48305
3 *10:3 *10:4 0.343962
4 *10:2 *10:5 11.0802
5 *10:6 *10:7 9.19432
6 *10:7 *10:3 1.287
7 *10:3 *145:Q 1.287
*END

*D_NET *26 0.00526053

*CONN
*I *142:Q O *C 56.66 36.04 *L 0 *D NOR2XL
*I *115:A I *C 75.88 14.84 *L 0.00225 *D CLKBUFX3

*CAP
1 *142:Q 0.000248955
2 *26:2 0.000161488
3 *26:3 0.000179652
4 *26:4 0.00206392
5 *26:5 0.00251322
6 *26:6 9.32989e-05

*RES
1 *26:5 *26:6 8.15314
2 *142:Q *26:4 2.28521
3 *26:4 *26:6 5.08018
4 *26:2 *26:3 0.343962
5 *26:5 *26:7 2.8058
6 *26:7 *26:2 1.287
7 *26:2 *115:A 2.574
*END

*D_NET *79 0.0190597

*CONN
*I *165:A I *C 71.7 35.85 *L 0.0012 *D NOR2XL
*I *164:A I *C 63.86 25.77 *L 0.0012 *D NOR2XL
*I *161:A I *C 28.02 25.77 *L 0.0012 *D NOR2XL
*I *157:A I *C 36.98 15.69 *L 0.0012 *D NOR2XL
*I *154:A I *C 54.9 15.69 *L 0.0012 *D NOR2XL
*I *148:A I *C 16.82 35.85 *L 0.0012 *D NOR2XL
*I *140:A I *C 72.82 25.77 *L 0.0012 *D NOR2XL
*I *139:A I *C 19.06 25.77 *L 0.0012 *D NOR2XL
*I *129:Q O *C 46.9 25.06 *L 0 *D NAND2XL

*CAP
1 *164:A 0.000329185
2 *161:A 7.93182e-05
3 *154:A 0.000130851
4 *140:A 0.000468474
5 *139:A 8.09296e-05
6 *79:9 0.000927441
7 *79:10 0.000104437
8 *79:11 0.000890061
9 *79:12 0.000228943
10 *79:13 0.00172313
11 *79:14 0.000626746
12 *79:15 0.000168715
13 *79:16 0.00160503
14 *79:17 0.000261779
15 *79:18 8.33521e-05
16 *79:19 0.000284746
17 *79:20 0.000309397
18 *79:21 0.000155634
19 *79:22 0.00203478
20 *79:23 0.000122951
21 *79:24 0.00192548
22 *79:25 0.000113742
23 *79:26 0.000148407
24 *79:27 0.000432755
25 *79:28 0.00061321
26 *79:29 0.000604988
27 *79:30 0.00159989
28 *79:31 8.31222e-05
29 *79:32 0.000214008
30 *79:33 0.000204581
31 *79:34 0.000253177
32 *79:35 0.00122562
33 *79:36 0.000492316
34 *79:37 0.000532458

*RES
1 *79:22 *79:28 1.78595
2 *79:23 *79:34 1.89133
3 *164:A *79:27 2.83327
4 *79:10 *79:33 1.68628
5 *79:30 *79:37 3.07295
6 *79:30 *79:35 3.3939
7 *79:15 *79:35 3.89316
8 *140:A *79:11 2.28521
9 *79:23 *79:24 2.18523
10 *79:9 *79:16 3.47223
11 *79:17 *79:18 0.249552
12 *79:13 *79:27 0.987386
13 *79:10 *79:11 2.18523
14 *79:24 *79:29 1.38667
15 *79:14 *79:16 5.18016
16 *79:11 *79:13 6.77729
17 *79:25 *79:26 0.343962
18 *79:15 *79:16 1.38667
19 *79:14 *79:27 1.38667
20 *79:22 *79:37 5.97872
21 *79:21 *79:28 1.38667
22 *79:19 *79:20 0.499103
23 *79:21 *79:24 5.77908
24 *154:A *79:9 0.623552
25 *79:31 *79:32 0.343962
26 *79:36 *79:37 1.79677
27 *79:36 *79:31 1.287
28 *79:33 *79:12 1.287
29 *79:31 *79:19 1.287
30 *79:34 *79:25 1.287
31 *79:35 *79:17 1.287
32 *79:12 *165:A 1.287
33 *79:17 *129:Q 1.287
34 *79:19 *157:A 1.287
35 *79:25 *148:A 1.287
36 *79:28 *161:A 1.287
37 *79:29 *139:A 1.287
*END

*D_NET *49 0.00917839

*CONN
*P *49 O *C 42.28 0 *L 0
*I *105:Q O *C 71.09 46.5 *L 0 *D CLKBUFX4

*CAP
1 *49 0.000288851
2 *105:Q 0.000279219
3 *49:2 0.000154514
4 *49:3 0.00350852
5 *49:4 0.00494729

*RES
1 *105:Q *49:2 1.88592
2 *49:3 *49:4 17.8572
3 *49:2 *49:3 11.6792
4 *49:4 *49 1.287
*END

*D_NET *65 0.00573482

*CONN
*P *65 O *C 60.2 0 *L 0
*I *106:Q O *C 50.37 26.44 *L 0 *D CLKBUFX3

*CAP
1 *65 0.000271622
2 *106:Q 9.85999e-05
3 *65:2 0.000154682
4 *65:3 0.00115393
5 *65:4 0.00385845
6 *65:5 0.000197539

*RES
1 *65:2 *65:3 2.58452
2 *65:4 *65:5 6.17807
3 *65:2 *65:4 5.97872
4 *65 *65:3 1.287
5 *65:5 *106:Q 1.287
*END

*D_NET *11 0.00550424

*CONN
*I *147:Q O *C 76.62 46.12 *L 0 *D NOR2XL
*I *101:A I *C 57.96 24.92 *L 0.00225 *D CLKBUFX3

*CAP
1 *147:Q 0.000179238
2 *101:A 0.00135007
3 *11:2 0.00151012
4 *11:3 0.00246481

*RES
1 *101:A *11:3 5.3798
2 *147:Q *11:2 5.06936
3 *11:2 *11:3 9.16217
*END

*D_NET *27 0.0046584

*CONN
*I *143:Q O *C 54.42 36.04 *L 0 *D NOR2XL
*I *116:A I *C 79.8 24.92 *L 0.00225 *D CLKBUFX3

*CAP
1 *143:Q 0.00020186
2 *116:A 0.000873601
3 *27:2 0.000126379
4 *27:3 0.00345656

*RES
1 *116:A *27:2 4.9697
2 *143:Q *27:3 1.88592
3 *27:2 *27:3 11.3582
*END

*D_NET *80 0.0179285

*CONN
*I *169:A I *C 63.86 15.69 *L 0.0012 *D NOR2XL
*I *162:A I *C 28.02 15.69 *L 0.0012 *D NOR2XL
*I *153:A I *C 72.82 15.69 *L 0.0012 *D NOR2XL
*I *150:A I *C 19.06 15.69 *L 0.0012 *D NOR2XL
*I *149:A I *C 39.18 35.85 *L 0.0012 *D NOR2XL
*I *146:A I *C 50.38 35.85 *L 0.0012 *D NOR2XL
*I *143:A I *C 54.86 35.85 *L 0.0012 *D NOR2XL
*I *142:A I *C 57.1 35.85 *L 0.0012 *D NOR2XL
*I *128:Q O *C 25.62 45.22 *L 0 *D NAND2XL

*CAP
1 *153:A 7.92811e-05
2 *80:9 9.48305e-05
3 *80:10 0.00012917
4 *80:11 4.63495e-05
5 *80:12 0.000525953
6 *80:13 0.000241977
7 *80:14 0.000120538
8 *80:15 0.00137886
9 *80:16 0.000283153
10 *80:17 0.000211798
11 *80:18 0.000305201
12 *80:19 0.00035549
13 *80:20 0.000137094
14 *80:21 0.000250315
15 *80:22 0.000202257
16 *80:23 0.000214588
17 *80:24 0.000221728
18 *80:25 0.0002129
19 *80:26 0.000296758
20 *80:27 0.000144574
21 *80:28 0.000108999
22 *80:29 0.000163016
23 *80:30 0.00209742
24 *80:31 0.00315164
25 *80:32 0.00228662
26 *80:33 0.000663239
27 *80:34 0.000412928
28 *80:35 0.000680313
29 *80:36 0.00291151

*RES
1 *80:30 *80:36 7.46506
2 *80:21 *80:22 0.449193
3 *80:9 *80:10 0.188821
4 *80:30 *80:37 1.00362
5 *80:16 *80:17 0.449193
6 *80:32 *80:36 6.47768
7 *80:27 *80:31 8.9517
8 *80:23 *80:24 0.443783
9 *80:13 *80:14 0.249552
10 *149:A *80:32 3.58303
11 *80:20 *80:32 5.26901
12 *80:10 *80:11 0.144321
13 *80:38 *80:34 0.803976
14 *80:28 *80:29 0.343962
15 *80:28 *80:36 5.27983
16 *80:14 *80:15 0.244141
17 *80:18 *80:19 0.249552
18 *80:25 *80:26 0.499103
19 *80:34 *80:35 1.59713
20 *80:30 *80:33 2.18523
21 *80:19 *80:20 0.654245
22 *80:15 *80:27 3.49388
23 *80:9 *80:31 4.28401
24 *80:31 *80:12 1.287
25 *80:28 *80:23 1.287
26 *80:33 *80:25 1.287
27 *80:38 *80:13 1.287
28 *80:34 *80:16 1.287
29 *80:35 *80:18 1.287
30 *80:37 *80:21 1.287
31 *80:13 *142:A 1.287
32 *80:18 *146:A 1.287
33 *80:12 *169:A 1.287
34 *80:16 *143:A 1.287
35 *80:21 *162:A 1.287
36 *80:23 *128:Q 1.287
37 *80:25 *150:A 1.287
38 *80:10 *153:A 1.287
*END

*D_NET *34 0.00808361

*CONN
*P *34 I *C 50.12 59.92 *L 0
*I *172:A I *C 59.08 38.92 *L 0.00136 *D INVXL
*I *137:B I *C 61.88 39.48 *L 0.00151 *D NAND2XL
*I *136:B I *C 51.24 39.48 *L 0.00151 *D NAND2XL
*I *132:B I *C 60.2 39.48 *L 0.00151 *D NAND2XL
*I *131:B I *C 49.56 39.48 *L 0.00151 *D NAND2XL

*CAP
1 *34 0.000239793
2 *172:A 0.000110822
3 *136:B 0.000128538
4 *131:B 0.00027889
5 *34:6 0.00279777
6 *34:7 0.000289573
7 *34:8 9.43803e-05
8 *34:9 0.00044381
9 *34:10 0.000123685
10 *34:11 5.25506e-05
11 *34:12 8.95265e-05
12 *34:13 0.000976457
13 *34:14 0.000141193
14 *34:15 0.000274489
15 *34:16 0.00103849
16 *34:17 0.000536755
17 *34:18 0.000466884

*RES
1 *34:10 *34:18 1.47582
2 *34:16 *34:19 0.198363
3 *131:B *34:14 1.47582
4 *34:13 *34:19 2.67908
5 *34:20 *34:9 0.449193
6 *34:21 *34:17 0.604334
7 *136:B *34:22 0.31598
8 *34:17 *34:18 0.598924
9 *131:B *34:6 0.922716
10 *34:12 *34:14 0.188821
11 *34:13 *34:14 0.188233
12 *34:7 *34:8 0.249552
13 *34:10 *34:11 0.144321
14 *34:6 *34:15 8.2684
15 *34:16 *34:18 1.58631
16 *34 *34:15 2.08557
17 *34:21 *34:7 1.287
18 *34:17 *34:9 1.287
19 *34:7 *137:B 1.287
20 *34:9 *132:B 1.287
21 *34:10 *172:A 1.287
22 *34:12 *34:22 2.574
*END

*D_NET *50 0.00612233

*CONN
*P *50 O *C 43.4 0 *L 0
*I *115:Q O *C 76.69 16.36 *L 0 *D CLKBUFX3

*CAP
1 *50 0.000251214
2 *50:2 0.000846298
3 *50:3 0.00201911
4 *50:4 0.000218071
5 *50:5 0.00196433
6 *50:6 0.000823305

*RES
1 *50:5 *50:6 5.15852
2 *115:Q *50:2 3.48305
3 *50:3 *50:6 6.68814
4 *50:3 *50:4 0.388462
5 *50:2 *50:5 7.68635
6 *50 *50:4 1.287
*END

*D_NET *66 0.00548515

*CONN
*P *66 O *C 61.32 0 *L 0
*I *116:Q O *C 80.61 26.44 *L 0 *D CLKBUFX3

*CAP
1 *66 0.000369493
2 *66:2 0.000655261
3 *66:3 0.00240662
4 *66:4 0.00205378

*RES
1 *116:Q *66:2 2.68449
2 *66:3 *66:4 8.67373
3 *66:2 *66:3 8.28527
4 *66:4 *66 1.287
*END

*D_NET *12 0.00586348

*CONN
*I *151:Q O *C 46.38 15.88 *L 0 *D NOR2XL
*I *102:A I *C 65.8 35 *L 0.00225 *D CLKBUFX3

*CAP
1 *151:Q 0.000574624
2 *12:2 0.00249189
3 *12:3 0.00279697

*RES
1 *102:A *12:2 8.76289
2 *151:Q *12:3 2.27439
3 *12:2 *12:3 9.57227
*END

*D_NET *28 0.00630923

*CONN
*I *146:Q O *C 49.94 36.04 *L 0 *D NOR2XL
*I *117:A I *C 24.36 14.84 *L 0.00225 *D CLKBUFX3

*CAP
1 *117:A 0.000925699
2 *28:2 0.00206591
3 *28:3 0.00331762

*RES
1 *117:A *28:3 4.9697
2 *146:Q *28:2 5.47406
3 *28:2 *28:3 11.7683
*END

*D_NET *81 0.0120676

*CONN
*I *166:A I *C 43.66 35.85 *L 0.0012 *D NOR2XL
*I *163:A I *C 31.34 45.93 *L 0.0012 *D NOR2XL
*I *160:A I *C 59.34 35.85 *L 0.0012 *D NOR2XL
*I *159:A I *C 41.42 35.85 *L 0.0012 *D NOR2XL
*I *158:A I *C 29.1 45.93 *L 0.0012 *D NOR2XL
*I *156:A I *C 61.58 35.85 *L 0.0012 *D NOR2XL
*I *152:A I *C 58.22 45.93 *L 0.0012 *D NOR2XL
*I *141:A I *C 43.66 25.77 *L 0.0012 *D NOR2XL
*I *127:Q O *C 35.7 35.14 *L 0 *D NAND2XL

*CAP
1 *160:A 0.00021522
2 *159:A 0.000275433
3 *158:A 0.000103713
4 *156:A 6.71344e-05
5 *141:A 0.00147722
6 *127:Q 0.000391898
7 *81:9 0.000121649
8 *81:10 0.000397912
9 *81:11 0.000152682
10 *81:12 0.000313223
11 *81:13 7.73922e-05
12 *81:14 0.000134048
13 *81:15 0.00183498
14 *81:16 0.000515247
15 *81:17 0.000142364
16 *81:18 0.000202446
17 *81:19 0.000248602
18 *81:20 0.000279694
19 *81:21 0.000441044
20 *81:22 0.000123775
21 *81:23 0.000512958
22 *81:24 0.00186239
23 *81:25 0.000962967
24 *81:26 0.000113785
25 *81:27 0.00109982

*RES
1 *81:17 *81:24 1.68628
2 *156:A *81:9 0.233255
3 *81:21 *81:22 1.09262
4 *81:15 *81:23 3.48846
5 *127:Q *81:15 1.8751
6 *160:A *81:11 1.68628
7 *81:16 *81:18 0.588103
8 *141:A *81:17 4.88054
9 *81:23 *81:24 0.793155
10 *163:A *81:25 3.17292
11 *159:A *81:23 2.97328
12 *81:14 *81:15 2.58452
13 *81:12 *81:13 0.249552
14 *81:19 *81:20 0.499103
15 *81:14 *81:25 2.69531
16 *81:21 *81:24 5.49555
17 *81:16 *81:25 1.88592
18 *81:26 *81:27 3.18344
19 *81:26 *81:19 1.287
20 *81:27 *81:21 1.287
21 *81:22 *81:10 1.287
22 *81:21 *81:11 1.287
23 *81:19 *81:12 1.287
24 *81:12 *152:A 1.287
25 *81:10 *81:9 1.287
26 *81:17 *166:A 1.287
27 *81:18 *158:A 1.287
*END

*D_NET *35 0.0108971

*CONN
*P *35 I *C 49 59.92 *L 0
*I *171:A I *C 32.76 46.2 *L 0.00136 *D INVXL
*I *129:B I *C 46.76 25.48 *L 0.00151 *D NAND2XL
*I *127:B I *C 35.56 35.56 *L 0.00151 *D NAND2XL

*CAP
1 *35 0.000361028
2 *129:B 0.000194761
3 *127:B 0.000213359
4 *35:4 0.000742081
5 *35:5 0.00248117
6 *35:6 0.000116247
7 *35:7 0.00191164
8 *35:8 0.000200378
9 *35:9 0.00106342
10 *35:10 0.000200391
11 *35:11 0.000451188
12 *35:12 0.00296142

*RES
1 *35:5 *35:10 7.45526
2 *171:A *35:7 4.57041
3 *35:4 *35:10 2.87331
4 *129:B *35:4 0.931124
5 *35:6 *35:9 3.09459
6 *35:6 *35:7 2.45217
7 *35:5 *35:9 3.27259
8 *35:8 *35:10 0.388462
9 *35:13 *35:12 9.98207
10 *127:B *35:9 2.20131
11 *35:13 *35 1.287
12 *35:12 *35:11 1.287
13 *35:11 *35:8 1.287
*END

*D_NET *51 0.0107879

*CONN
*P *51 O *C 44.52 0 *L 0
*I *100:Q O *C 80.05 46.5 *L 0 *D CLKBUFX4

*CAP
1 *51 0.000375547
2 *51:2 0.000839934
3 *51:3 0.00381115
4 *51:4 0.00348388
5 *51:5 0.00141999
6 *51:6 0.000857418

*RES
1 *51:5 *51:6 4.28162
2 *100:Q *51:2 3.28341
3 *51:2 *51:3 10.4813
4 *51:4 *51:5 3.60436
5 *51:3 *51:4 13.5434
6 *51:6 *51 1.287
*END

*D_NET *67 0.00433185

*CONN
*P *67 O *C 62.44 0 *L 0
*I *99:Q O *C 49.81 16.36 *L 0 *D CLKBUFX3

*CAP
1 *67 0.00029075
2 *67:2 0.000151195
3 *67:3 0.000969061
4 *67:4 0.00292084

*RES
1 *67:2 *67:3 2.18523
2 *99:Q *67:4 4.28162
3 *67:2 *67:4 6.77729
4 *67 *67:3 1.287
*END

*D_NET *13 0.00792592

*CONN
*I *155:Q O *C 55.34 25.96 *L 0 *D NOR2XL
*I *103:A I *C 21 45.08 *L 0.00225 *D CLKBUFX3

*CAP
1 *155:Q 0.000199115
2 *13:2 0.00249576
3 *13:3 0.000223211
4 *13:4 0.00500783

*RES
1 *103:A *13:4 4.17113
2 *155:Q *13:2 0.623552
3 *13:2 *13:3 6.86615
4 *13:3 *13:4 14.3637
*END

*D_NET *29 0.00457592

*CONN
*I *149:Q O *C 38.74 36.04 *L 0 *D NOR2XL
*I *118:A I *C 15.4 24.92 *L 0.00225 *D CLKBUFX3

*CAP
1 *118:A 0.000440773
2 *29:2 0.00126607
3 *29:3 0.00286908

*RES
1 *118:A *29:3 3.77185
2 *149:Q *29:2 3.08918
3 *29:2 *29:3 10.9589
*END

*D_NET *82 0.00374954

*CONN
*I *171:Q O *C 32.42 46.42 *L 0 *D INVXL
*I *130:B I *C 34.44 45.64 *L 0.00151 *D NAND2XL
*I *128:B I *C 25.48 45.64 *L 0.00151 *D NAND2XL

*CAP
1 *171:Q 0.000505784
2 *130:B 0.000125424
3 *128:B 0.000200557
4 *82:3 0.000467418
5 *82:4 0.000123496
6 *82:5 0.0007844
7 *82:6 0.00107389
8 *82:7 0.000468573

*RES
1 *82:6 *82:7 3.56139
2 *171:Q *82:5 3.36715
3 *130:B *82:3 0.623552
4 *82:5 *82:6 2.76815
5 *82:3 *82:4 3.56139
6 *128:B *82:7 0.931124
7 *82:4 *82:5 1.86225
*END

*D_NET *36 0.00674203

*CONN
*P *36 I *C 47.88 59.92 *L 0
*I *175:B I *C 73.64 46.2 *L 0.00141 *D NOR2XL
*I *173:A I *C 72.52 46.2 *L 0.00136 *D INVXL
*I *126:A I *C 52.92 39.48 *L 0.00211 *D AND2X3

*CAP
1 *36 0.000334244
2 *175:B 0.000114319
3 *126:A 0.00146201
4 *36:4 9.75578e-05
5 *36:5 0.00173312
6 *36:6 0.00048668
7 *36:7 7.55013e-05
8 *36:8 0.000130373
9 *36:9 0.00042815
10 *36:10 0.00130818
11 *36:11 0.000571897

*RES
1 *36:7 *36:10 1.90214
2 *36 *36:11 0.298823
3 *36:6 *36:7 0.151772
4 *36:4 *36:9 2.27916
5 *126:A *36:10 4.6809
6 *36:12 *36:6 2.13619
7 *36:4 *36:5 7.99687
8 *36:8 *36:10 3.18344
9 *36:8 *36:11 3.08377
10 *36:5 *36:12 0.151772
11 *175:B *36:9 1.67546
12 *36:9 *173:A 1.287
*END

*D_NET *52 0.0066293

*CONN
*P *52 O *C 45.64 0 *L 0
*I *118:Q O *C 16.21 26.44 *L 0 *D CLKBUFX3

*CAP
1 *52 0.000290654
2 *118:Q 8.64243e-05
3 *52:2 0.000151195
4 *52:3 0.0009595
5 *52:4 0.00500748
6 *52:5 0.000134047

*RES
1 *52:2 *52:3 2.18523
2 *52:4 *52:5 6.57735
3 *52:2 *52:4 12.5669
4 *52 *52:3 1.287
5 *52:5 *118:Q 1.287
*END

*D_NET *68 0.0073148

*CONN
*P *68 O *C 63.56 0 *L 0
*I *117:Q O *C 25.17 16.36 *L 0 *D CLKBUFX3

*CAP
1 *68 0.00029466
2 *117:Q 0.000219235
3 *68:2 0.000162672
4 *68:3 0.000151681
5 *68:4 0.000850004
6 *68:5 0.00563655

*RES
1 *117:Q *68:2 0.931124
2 *68:3 *68:4 1.78595
3 *68:2 *68:5 4.67008
4 *68:3 *68:5 15.3618
5 *68 *68:4 1.287
*END

*D_NET *14 0.00300258

*CONN
*I *167:Q O *C 37.42 25.96 *L 0 *D NOR2XL
*I *104:A I *C 31.08 35 *L 0.00225 *D CLKBUFX3

*CAP
1 *167:Q 0.000355696
2 *14:2 0.00022234
3 *14:3 0.00242454

*RES
1 *104:A *14:3 5.76826
2 *167:Q *14:2 1.67546
3 *14:2 *14:3 4.77547
*END

*D_NET *30 0.0070039

*CONN
*I *150:Q O *C 19.5 15.88 *L 0 *D NOR2XL
*I *119:A I *C 66.92 14.84 *L 0.00225 *D CLKBUFX3

*CAP
1 *150:Q 0.000416807
2 *30:2 0.000186751
3 *30:3 0.000423109
4 *30:4 0.00597723

*RES
1 *119:A *30:3 2.77364
2 *150:Q *30:4 1.88051
3 *30:2 *30:3 0.592874
4 *30:2 *30:4 19.3547
*END

*D_NET *83 0.0154137

*CONN
*I *162:B I *C 28.84 15.96 *L 0.00141 *D NOR2XL
*I *158:B I *C 28.28 46.2 *L 0.00141 *D NOR2XL
*I *155:B I *C 55.72 26.04 *L 0.00141 *D NOR2XL
*I *139:B I *C 19.88 26.04 *L 0.00141 *D NOR2XL
*I *131:Q O *C 49.42 39.9 *L 0 *D NAND2XL

*CAP
1 *162:B 0.000414425
2 *155:B 0.000154148
3 *139:B 0.000132285
4 *131:Q 0.000615036
5 *83:5 0.000147714
6 *83:6 0.0011301
7 *83:7 0.000110141
8 *83:8 0.000173673
9 *83:9 0.00106046
10 *83:10 0.00240522
11 *83:11 0.000842761
12 *83:12 6.45652e-05
13 *83:13 0.00189764
14 *83:14 7.95218e-05
15 *83:15 0.000283777
16 *83:16 9.92573e-05
17 *83:17 0.00159958
18 *83:18 6.71506e-05