*SPEF "IEEE 1481-1998"
*DESIGN "fet_dec"
*DATE "Tue Aug 29 14:47:34 2017"
*VENDOR "Cadence Design Systems, Inc."
*PROGRAM "Innovus"
*VERSION "15.28-s017_1"
*DESIGN_FLOW "PIN_CAP NONE" "NAME_SCOPE LOCAL"
*DIVIDER /
*DELIMITER :
*BUS_DELIMITER []
*T_UNIT 1 NS
*C_UNIT 1 PF
*R_UNIT 1 OHM
*L_UNIT 1 HENRY

// MMMC spef file for corner 'ams_rc_corner_minCaR2'

*NAME_MAP

*1 CTS_160
*2 CTS_159
*3 CTS_158
*4 CTS_157
*5 CTS_156
*6 CTS_155
*7 CTS_154
*8 CTS_153
*9 CTS_152
*10 CTS_151
*11 CTS_150
*12 CTS_149
*13 CTS_148
*14 CTS_147
*15 CTS_146
*16 CTS_145
*17 sll_18_12/CTS_135
*18 CTS_144
*19 CTS_143
*20 CTS_142
*21 CTS_141
*22 CTS_140
*23 CTS_139
*24 CTS_138
*25 CTS_137
*26 CTS_136
*27 CTS_135
*28 CTS_134
*29 CTS_133
*30 CTS_132
*31 CTS_131
*32 CTS_130
*33 CTS_129
*34 in[4]
*35 in[3]
*36 in[2]
*37 in[1]
*38 in[0]
*39 out[31]
*40 out[30]
*41 out[29]
*42 out[28]
*43 out[27]
*44 out[26]
*45 out[25]
*46 out[24]
*47 out[23]
*48 out[22]
*49 out[21]
*50 out[20]
*51 out[19]
*52 out[18]
*53 out[17]
*54 out[16]
*55 out[15]
*56 out[14]
*57 out[13]
*58 out[12]
*59 out[11]
*60 out[10]
*61 out[9]
*62 out[8]
*63 out[7]
*64 out[6]
*65 out[5]
*66 out[4]
*67 out[3]
*68 out[2]
*69 out[1]
*70 out[0]
*71 logic_1_1_net
*72 sll_18_12/n_0
*73 sll_18_12/n_1
*74 sll_18_12/n_2
*75 sll_18_12/n_3
*76 sll_18_12/n_4
*77 sll_18_12/n_5
*78 sll_18_12/n_7
*79 sll_18_12/n_8
*80 sll_18_12/n_9
*81 sll_18_12/n_10
*82 sll_18_12/n_11
*83 sll_18_12/n_12
*84 sll_18_12/n_13
*85 sll_18_12/n_15
*86 sll_18_12/n_17
*87 sll_18_12/n_29
*88 sll_18_12/n_31
*89 sll_18_12/n_34
*90 sll_18_12/n_36
*91 CTS_ccl_BUF_in_0__G0_L3_16
*92 CTS_ccl_BUF_in_0__G0_L3_15
*93 CTS_ccl_BUF_in_0__G0_L3_14
*94 CTS_ccl_BUF_in_0__G0_L3_13
*95 CTS_ccl_BUF_in_0__G0_L3_12
*96 CTS_ccl_BUF_in_0__G0_L3_11
*97 CTS_ccl_BUF_in_0__G0_L3_10
*98 CTS_ccl_BUF_in_0__G0_L3_9
*99 CTS_ccl_BUF_in_0__G0_L3_8
*100 CTS_ccl_BUF_in_0__G0_L3_7
*101 CTS_ccl_BUF_in_0__G0_L3_6
*102 CTS_ccl_BUF_in_0__G0_L3_5
*103 CTS_ccl_BUF_in_0__G0_L3_4
*104 CTS_ccl_BUF_in_0__G0_L3_3
*105 CTS_ccl_BUF_in_0__G0_L3_2
*106 CTS_ccl_BUF_in_0__G0_L3_1
*107 CTS_ccl_BUF_in_0__G0_L4_16
*108 CTS_ccl_BUF_in_0__G0_L4_15
*109 CTS_ccl_BUF_in_0__G0_L4_14
*110 CTS_ccl_BUF_in_0__G0_L4_13
*111 CTS_ccl_BUF_in_0__G0_L4_12
*112 CTS_ccl_BUF_in_0__G0_L4_11
*113 CTS_ccl_BUF_in_0__G0_L4_10
*114 CTS_ccl_BUF_in_0__G0_L4_9
*115 CTS_ccl_BUF_in_0__G0_L4_8
*116 CTS_ccl_BUF_in_0__G0_L4_7
*117 CTS_ccl_BUF_in_0__G0_L4_6
*118 CTS_ccl_BUF_in_0__G0_L4_5
*119 CTS_ccl_BUF_in_0__G0_L4_4
*120 CTS_ccl_BUF_in_0__G0_L4_3
*121 CTS_ccl_BUF_in_0__G0_L4_2
*122 CTS_ccl_BUF_in_0__G0_L4_1
*123 tie_1_cell
*124 sll_18_12/CTS_cex_INV_in_0__G0_L1_1
*125 sll_18_12/g200
*126 sll_18_12/g202
*127 sll_18_12/g348
*128 sll_18_12/g349
*129 sll_18_12/g350
*130 sll_18_12/g351
*131 sll_18_12/g191
*132 sll_18_12/g192
*133 sll_18_12/g193
*134 sll_18_12/g194
*135 sll_18_12/g195
*136 sll_18_12/g196
*137 sll_18_12/g197
*138 sll_18_12/g198
*139 sll_18_12/g316
*140 sll_18_12/g317
*141 sll_18_12/g318
*142 sll_18_12/g319
*143 sll_18_12/g320
*144 sll_18_12/g321
*145 sll_18_12/g322
*146 sll_18_12/g323
*147 sll_18_12/g324
*148 sll_18_12/g325
*149 sll_18_12/g326
*150 sll_18_12/g327
*151 sll_18_12/g328
*152 sll_18_12/g329
*153 sll_18_12/g330
*154 sll_18_12/g331
*155 sll_18_12/g332
*156 sll_18_12/g333
*157 sll_18_12/g334
*158 sll_18_12/g335
*159 sll_18_12/g336
*160 sll_18_12/g337
*161 sll_18_12/g338
*162 sll_18_12/g339
*163 sll_18_12/g340
*164 sll_18_12/g341
*165 sll_18_12/g342
*166 sll_18_12/g343
*167 sll_18_12/g344
*168 sll_18_12/g345
*169 sll_18_12/g346
*170 sll_18_12/g347
*171 sll_18_12/g123
*172 sll_18_12/g203
*173 sll_18_12/g204
*174 sll_18_12/g199
*175 sll_18_12/g201


*PORTS

*34 I *C 50.12 59.92
*35 I *C 49 59.92
*36 I *C 47.88 59.92
*37 I *C 46.76 59.92
*38 I *C 45.64 59.92
*39 O *C 31.08 0
*40 O *C 32.2 0
*41 O *C 33.32 0
*42 O *C 34.44 0
*43 O *C 35.56 0
*44 O *C 36.68 0
*45 O *C 37.8 0
*46 O *C 38.92 0
*47 O *C 40.04 0
*48 O *C 41.16 0
*49 O *C 42.28 0
*50 O *C 43.4 0
*51 O *C 44.52 0
*52 O *C 45.64 0
*53 O *C 46.76 0
*54 O *C 47.88 0
*55 O *C 49 0
*56 O *C 50.12 0
*57 O *C 51.24 0
*58 O *C 52.36 0
*59 O *C 53.48 0
*60 O *C 54.6 0
*61 O *C 55.72 0
*62 O *C 56.84 0
*63 O *C 57.96 0
*64 O *C 59.08 0
*65 O *C 60.2 0
*66 O *C 61.32 0
*67 O *C 62.44 0
*68 O *C 63.56 0
*69 O *C 64.68 0
*70 O *C 65.8 0


*D_NET *34 0.00809739

*CONN
*P *34 I *C 50.12 59.92 *L 0
*I *172:A I *C 59.08 38.92 *L 0.00134 *D INVXL
*I *137:B I *C 61.88 39.48 *L 0.00154 *D NAND2XL
*I *136:B I *C 51.24 39.48 *L 0.00154 *D NAND2XL
*I *132:B I *C 60.2 39.48 *L 0.00154 *D NAND2XL
*I *131:B I *C 49.56 39.48 *L 0.00154 *D NAND2XL

*CAP
1 *34 0.000253526
2 *172:A 9.90478e-05
3 *136:B 0.000135292
4 *131:B 0.000267346
5 *34:6 0.00270247
6 *34:7 0.000295217
7 *34:8 9.07608e-05
8 *34:9 0.000417982
9 *34:10 0.00011945
10 *34:11 5.15573e-05
11 *34:12 8.46271e-05
12 *34:13 0.00103212
13 *34:14 0.00013221
14 *34:15 0.000272752
15 *34:16 0.00107992
16 *34:17 0.000589339
17 *34:18 0.000473779

*RES
1 *34:10 *34:18 0.551226
2 *34:16 *34:19 0.203463
3 *131:B *34:14 0.551226
4 *34:13 *34:19 1.65368
5 *34:20 *34:9 0.407144
6 *34:21 *34:17 0.559597
7 *136:B *34:22 0.348178
8 *34:17 *34:18 0.542859
9 *131:B *34:6 0.965204
10 *34:12 *34:14 0.147476
11 *34:13 *34:14 0.170613
12 *34:7 *34:8 0.226191
13 *34:10 *34:11 0.118976
14 *34:6 *34:15 6.73162
15 *34:16 *34:18 1.41415
16 *34 *34:15 1.12756
17 *34:21 *34:7 0.40375
18 *34:17 *34:9 0.40375
19 *34:7 *137:B 0.40375
20 *34:9 *132:B 0.40375
21 *34:10 *172:A 0.40375
22 *34:12 *34:22 0.8075
*END

*D_NET *50 0.0060625

*CONN
*P *50 O *C 43.4 0 *L 0
*I *115:Q O *C 76.69 16.36 *L 0 *D CLKBUFX3

*CAP
1 *50 0.000263071
2 *50:2 0.00082662
3 *50:3 0.0020993
4 *50:4 0.000216545
5 *50:5 0.00190661
6 *50:6 0.000750349

*RES
1 *50:5 *50:6 3.12641
2 *115:Q *50:2 2.39423
3 *50:3 *50:6 5.32295
4 *50:3 *50:4 0.328429
5 *50:2 *50:5 6.22772
6 *50 *50:4 0.40375
*END

*D_NET *66 0.00547701

*CONN
*P *66 O *C 61.32 0 *L 0
*I *116:Q O *C 80.61 26.44 *L 0 *D CLKBUFX3

*CAP
1 *66 0.0003915
2 *66:2 0.000647244
3 *66:3 0.0023815
4 *66:4 0.00205677

*RES
1 *116:Q *66:2 1.67042
2 *66:3 *66:4 7.09901
3 *66:2 *66:3 6.77058
4 *66:4 *66 0.40375
*END

*D_NET *12 0.00584022

*CONN
*I *151:Q O *C 46.38 15.88 *L 0 *D NOR2XL
*I *102:A I *C 65.8 35 *L 0.00231 *D CLKBUFX3

*CAP
1 *151:Q 0.000555503
2 *12:2 0.00250749
3 *12:3 0.00277723

*RES
1 *102:A *12:2 6.41704
2 *151:Q *12:3 1.27504
3 *12:2 *12:3 7.17433
*END

*D_NET *28 0.00629634

*CONN
*I *146:Q O *C 49.94 36.04 *L 0 *D NOR2XL
*I *117:A I *C 24.36 14.84 *L 0.00231 *D CLKBUFX3

*CAP
1 *117:A 0.000908183
2 *28:2 0.00202925
3 *28:3 0.00335891

*RES
1 *117:A *28:3 2.97894
2 *146:Q *28:2 4.18702
3 *28:2 *28:3 9.16481
*END

*D_NET *81 0.0122824

*CONN
*I *166:A I *C 43.66 35.85 *L 0.0012 *D NOR2XL
*I *163:A I *C 31.34 45.93 *L 0.0012 *D NOR2XL
*I *160:A I *C 59.34 35.85 *L 0.0012 *D NOR2XL
*I *159:A I *C 41.42 35.85 *L 0.0012 *D NOR2XL
*I *158:A I *C 29.1 45.93 *L 0.0012 *D NOR2XL
*I *156:A I *C 61.58 35.85 *L 0.0012 *D NOR2XL
*I *152:A I *C 58.22 45.93 *L 0.0012 *D NOR2XL
*I *141:A I *C 43.66 25.77 *L 0.0012 *D NOR2XL
*I *127:Q O *C 35.7 35.14 *L 0 *D NAND2XL

*CAP
1 *160:A 0.000211134
2 *159:A 0.000279953
3 *158:A 0.000108836
4 *156:A 6.94699e-05
5 *141:A 0.00148562
6 *127:Q 0.000381438
7 *81:9 0.00012282
8 *81:10 0.000420122
9 *81:11 0.000152197
10 *81:12 0.000307336
11 *81:13 7.2534e-05
12 *81:14 0.000135785
13 *81:15 0.00184988
14 *81:16 0.000528886
15 *81:17 0.000142451
16 *81:18 0.000211521
17 *81:19 0.000284624
18 *81:20 0.000300843
19 *81:21 0.000442318
20 *81:22 0.000130885
21 *81:23 0.000517712
22 *81:24 0.00187556
23 *81:25 0.00100013
24 *81:26 0.000116603
25 *81:27 0.00113375

*RES
1 *81:17 *81:24 0.765656
2 *156:A *81:9 0.226348
3 *81:21 *81:22 0.978503
4 *81:15 *81:23 2.41097
5 *127:Q *81:15 0.913132
6 *160:A *81:11 0.765656
7 *81:16 *81:18 0.509382
8 *141:A *81:17 3.6609
9 *81:23 *81:24 0.707074
10 *163:A *81:25 1.35036
11 *159:A *81:23 1.16941
12 *81:14 *81:15 2.31891
13 *81:12 *81:13 0.226191
14 *81:19 *81:20 0.452382
15 *81:14 *81:25 1.7039
16 *81:21 *81:24 4.99294
17 *81:16 *81:25 0.946609
18 *81:26 *81:27 2.86177
19 *81:26 *81:19 0.40375
20 *81:27 *81:21 0.40375
21 *81:22 *81:10 0.40375
22 *81:21 *81:11 0.40375
23 *81:19 *81:12 0.40375
24 *81:12 *152:A 0.40375
25 *81:10 *81:9 0.40375
26 *81:17 *166:A 0.40375
27 *81:18 *158:A 0.40375
*END

*D_NET *36 0.00675415

*CONN
*P *36 I *C 47.88 59.92 *L 0
*I *175:B I *C 73.64 46.2 *L 0.00142 *D NOR2XL
*I *173:A I *C 72.52 46.2 *L 0.00134 *D INVXL
*I *126:A I *C 52.92 39.48 *L 0.00219 *D AND2X3

*CAP
1 *36 0.00034804
2 *175:B 0.000105301
3 *126:A 0.00145881
4 *36:4 9.48377e-05
5 *36:5 0.00178659
6 *36:6 0.000504441
7 *36:7 7.74869e-05
8 *36:8 0.000128823
9 *36:9 0.000410762
10 *36:10 0.00126993
11 *36:11 0.000569125

*RES
1 *36:7 *36:10 1.04722
2 *36 *36:11 0.282684
3 *36:6 *36:7 0.194056
4 *36:4 *36:9 1.30303
5 *126:A *36:10 3.47995
6 *36:12 *36:6 2.19926
7 *36:4 *36:5 8.36511
8 *36:8 *36:10 2.86177
9 *36:8 *36:11 2.03233
10 *36:5 *36:12 0.194056
11 *175:B *36:9 0.732179
12 *36:9 *173:A 0.40375
*END

*D_NET *52 0.00656657

*CONN
*P *52 O *C 45.64 0 *L 0
*I *118:Q O *C 16.21 26.44 *L 0 *D CLKBUFX3

*CAP
1 *52 0.000302999
2 *118:Q 9.21818e-05
3 *52:2 0.000146276
4 *52:3 0.000935809
5 *52:4 0.00496603
6 *52:5 0.000123276

*RES
1 *52:2 *52:3 1.95701
2 *52:4 *52:5 5.93797
3 *52:2 *52:4 9.88863
4 *52 *52:3 0.40375
5 *52:5 *118:Q 0.40375
*END

*D_NET *68 0.00735393

*CONN
*P *68 O *C 63.56 0 *L 0
*I *117:Q O *C 25.17 16.36 *L 0 *D CLKBUFX3

*CAP
1 *68 0.000304865
2 *117:Q 0.000224779
3 *68:2 0.00016333
4 *68:3 0.0001456
5 *68:4 0.000846679
6 *68:5 0.00566868

*RES
1 *117:Q *68:2 0.991648
2 *68:3 *68:4 1.5951
3 *68:2 *68:5 3.44647
4 *68:3 *68:5 12.422
5 *68 *68:4 0.40375
*END

*D_NET *14 0.00299156

*CONN
*I *167:Q O *C 37.42 25.96 *L 0 *D NOR2XL
*I *104:A I *C 31.08 35 *L 0.00231 *D CLKBUFX3

*CAP
1 *167:Q 0.000348342
2 *14:2 0.000224884
3 *14:3 0.00241833

*RES
1 *104:A *14:3 3.70275
2 *167:Q *14:2 0.732179
3 *14:2 *14:3 2.81472
*END

*D_NET *30 0.00704011

*CONN
*I *150:Q O *C 19.5 15.88 *L 0 *D NOR2XL
*I *119:A I *C 66.92 14.84 *L 0.00231 *D CLKBUFX3

*CAP
1 *150:Q 0.000427818
2 *30:2 0.000189562
3 *30:3 0.000418342
4 *30:4 0.00600439

*RES
1 *119:A *30:3 0.988453
2 *150:Q *30:4 0.929871
3 *30:2 *30:3 0.537375
4 *30:2 *30:4 16.041
*END

*D_NET *83 0.0153767

*CONN
*I *162:B I *C 28.84 15.96 *L 0.00142 *D NOR2XL
*I *158:B I *C 28.28 46.2 *L 0.00142 *D NOR2XL
*I *155:B I *C 55.72 26.04 *L 0.00142 *D NOR2XL
*I *139:B I *C 19.88 26.04 *L 0.00142 *D NOR2XL
*I *131:Q O *C 49.42 39.9 *L 0 *D NAND2XL

*CAP
1 *162:B 0.000395216
2 *155:B 0.000155118
3 *139:B 0.000138044
4 *131:Q 0.000631655
5 *83:5 0.000144901
6 *83:6 0.00109293
7 *83:7 0.000109381
8 *83:8 0.000184945
9 *83:9 0.00106253
10 *83:10 0.00246962
11 *83:11 0.000852285
12 *83:12 6.74584e-05
13 *83:13 0.0019456
14 *83:14 7.93172e-05
15 *83:15 0.00029444
16 *83:16 9.60641e-05
17 *83:17 0.00158893
18 *83:18 6.13988e-05
19 *83:19 0.000244991
20 *83:20 0.00140068
21 *83:21 0.0011597
22 *83:22 0.000508762
23 *83:23 0.000692692

*RES
1 *83:16 *83:21 1.09409
2 *83:20 *83:22 3.43262
3 *162:B *83:23 1.30851
4 *155:B *83:5 0.669913
5 *83:8 *83:12 0.194056
6 *83:17 *83:24 3.46061
7 *83:11 *83:14 0.354923
8 *83:14 *83:23 1.04722
9 *83:5 *83:9 2.94546
10 *83:9 *83:10 10.939
11 *83:17 *83:18 0.147476
12 *139:B *83:16 0.669913
13 *83:12 *83:13 8.31222
14 *131:Q *83:6 2.92206
15 *83:6 *83:7 3.48832
16 *83:18 *83:19 0.356422
17 *83:10 *83:25 0.354923
18 *83:13 *83:26 0.194056
19 *83:19 *83:21 3.37432
20 *83:7 *83:8 0.64347
21 *83:19 *83:23 1.41415
22 *83:25 *83:11 4.4514
23 *83:26 *83:15 0.64347
24 *83:15 *83:22 1.67042
25 *83:24 *83:20 0.328429
26 *83:22 *158:B 0.40375
*END

*D_NET *37 0.0105073

*CONN
*P *37 I *C 46.76 59.92 *L 0
*I *175:A I *C 74.46 45.93 *L 0.0012 *D NOR2XL
*I *174:B I *C 70.28 38.92 *L 0.00142 *D NOR2XL
*I *126:B I *C 54.02 40.16 *L 0.00239 *D AND2X3
*I *125:A I *C 71.96 39.48 *L 0.00219 *D AND2X3

*CAP
1 *37 0.000398026
2 *174:B 0.000835314
3 *126:B 0.00122557
4 *37:5 0.000616339
5 *37:6 0.000549359
6 *37:7 0.000263469
7 *37:8 0.000627809
8 *37:9 0.000361314
9 *37:10 0.00194001
10 *37:11 0.000151602
11 *37:12 0.00260719
12 *37:13 7.05113e-05
13 *37:14 0.000860783

*RES
1 *126:B *37:12 2.61703
2 *174:B *37:8 1.15568
3 *37:8 *37:9 0.333406
4 *37:5 *37:10 2.25512
5 *37:11 *37:12 3.40463
6 *37 *37:14 0.64459
7 *37:11 *37:14 2.93709
8 *174:B *37:5 3.24379
9 *37:12 *37:13 3.6609
10 *37:15 *37:8 2.37229
11 *37:6 *37:10 4.90563
12 *37:15 *37:7 0.333406
13 *37:16 *37:10 0.74055
14 *175:A *37:6 1.16104
15 *37:13 *37:16 0.40375
16 *37:15 *125:A 0.8075
*END

*D_NET *53 0.008512

*CONN
*P *53 O *C 46.76 0 *L 0
*I *102:Q O *C 66.61 36.52 *L 0 *D CLKBUFX3

*CAP
1 *53 0.000332984
2 *102:Q 0.000214253
3 *53:2 0.000153364
4 *53:3 0.00156156
5 *53:4 0.00309581
6 *53:5 0.00315403

*RES
1 *102:Q *53:2 0.938761
2 *53:2 *53:3 2.39423
3 *53:4 *53:5 9.59887
4 *53:3 *53:4 7.67534
5 *53:5 *53 0.40375
*END

*D_NET *69 0.00477786

*CONN
*P *69 O *C 64.68 0 *L 0
*I *101:Q O *C 58.77 26.44 *L 0 *D CLKBUFX3

*CAP
1 *69 0.000260677
2 *101:Q 9.38743e-05
3 *69:2 0.000135837
4 *69:3 0.000222966
5 *69:4 0.00392312
6 *69:5 0.000141383

*RES
1 *69:2 *69:3 0.328429
2 *69:4 *69:5 7.56654
3 *69:2 *69:4 2.2886
4 *69 *69:3 0.40375
5 *69:5 *101:Q 0.40375
*END

*D_NET *15 0.00196062

*CONN
*I *168:Q O *C 69.54 36.04 *L 0 *D NOR2XL
*I *105:A I *C 70.28 45.08 *L 0.00243 *D CLKBUFX4

*CAP
1 *168:Q 0.000474117
2 *15:2 0.001427
3 *15:3 5.9498e-05

*RES
1 *168:Q *15:3 0.760172
2 *105:A *15:2 3.32699
3 *15:2 *15:3 0.147476
*END

*D_NET *31 0.00227501

*CONN
*I *153:Q O *C 73.26 15.88 *L 0 *D NOR2XL
*I *120:A I *C 75.88 24.92 *L 0.00231 *D CLKBUFX3

*CAP
1 *153:Q 0.000366547
2 *31:2 0.00136326
3 *31:3 0.000545206

*RES
1 *120:A *31:2 3.70275
2 *153:Q *31:3 0.732179
3 *31:2 *31:3 1.74574
*END

*D_NET *84 0.0121122

*CONN
*I *168:B I *C 69.16 36.12 *L 0.00142 *D NOR2XL
*I *159:B I *C 40.6 36.12 *L 0.00142 *D NOR2XL
*I *142:B I *C 56.28 36.12 *L 0.00142 *D NOR2XL
*I *140:B I *C 73.64 26.04 *L 0.00142 *D NOR2XL
*I *137:Q O *C 61.74 39.9 *L 0 *D NAND2XL

*CAP
1 *168:B 0.00010732
2 *137:Q 0.000958949
3 *84:5 0.000169996
4 *84:6 0.00105432
5 *84:7 0.00205408
6 *84:8 0.000251076
7 *84:9 0.000117127
8 *84:10 0.00171755
9 *84:11 0.00116025
10 *84:12 0.000400368
11 *84:13 0.00241422
12 *84:14 0.00111806
13 *84:15 0.000520369
14 *84:16 6.85128e-05

*RES
1 *142:B *84:7 2.07417
2 *84:15 *84:16 0.147476
3 *84:9 *84:10 7.34701
4 *84:17 *84:12 0.299929
5 *137:Q *84:15 0.974602
6 *84:6 *84:7 3.27023
7 *84:5 *84:14 1.99885
8 *84:10 *84:18 0.354923
9 *84:12 *84:13 2.2886
10 *84:7 *84:8 0.912318
11 *84:6 *84:16 2.2078
12 *137:Q *84:5 3.53908
13 *84:18 *84:11 0.64347
14 *84:8 *84:9 0.354923
15 *84:13 *84:14 3.22367
16 *159:B *84:11 2.07417
17 *84:12 *140:B 0.40375
18 *84:14 *168:B 0.40375
*END

*D_NET *38 0.00959583

*CONN
*P *38 I *C 45.64 59.92 *L 0
*I *130:A I *C 33.32 45.08 *L 0.00148 *D NAND2XL
*I *129:A I *C 45.64 24.92 *L 0.00148 *D NAND2XL
*I *124:A I *C 51.8 35 *L 0.00211 *D CLKINVX1

*CAP
1 *38 0.000154355
2 *129:A 8.1537e-05
3 *124:A 7.40471e-05
4 *38:4 0.000141646
5 *38:5 0.000976154
6 *38:6 0.00250296
7 *38:7 0.00171462
8 *38:8 0.000849178
9 *38:9 0.00210282
10 *38:10 0.000998508

*RES
1 *38:4 *38:8 1.44762
2 *38:6 *38:10 4.20376
3 *38:4 *38:10 2.39423
4 *38 *38:5 4.38471
5 *38:6 *38:7 1.77605
6 *38:9 *38:10 5.07505
7 *38:5 *38:7 4.52382
8 *38:7 *130:A 0.40375
9 *38:8 *124:A 0.40375
10 *38:9 *129:A 0.40375
*END

*D_NET *54 0.00659755

*CONN
*P *54 O *C 47.88 0 *L 0
*I *120:Q O *C 76.69 26.44 *L 0 *D CLKBUFX3

*CAP
1 *54 0.000335619
2 *54:2 0.000864129
3 *54:3 0.0034532
4 *54:4 0.0019446

*RES
1 *120:Q *54:2 2.21328
2 *54:3 *54:4 6.52267
3 *54:2 *54:3 9.66582
4 *54:4 *54 0.40375
*END

*D_NET *70 0.00231061

*CONN
*P *70 O *C 65.8 0 *L 0
*I *119:Q O *C 67.73 16.36 *L 0 *D CLKBUFX3

*CAP
1 *70 0.00037446
2 *70:2 0.00193615

*RES
1 *70 *70:2 1.12756
2 *119:Q *70:2 5.10852
*END

*D_NET *16 0.00621489

*CONN
*I *170:Q O *C 67.66 46.12 *L 0 *D NOR2XL
*I *106:A I *C 49.56 24.92 *L 0.00231 *D CLKBUFX3

*CAP
1 *170:Q 0.000197814
2 *106:A 0.000270261
3 *16:2 0.002977
4 *16:3 0.00276982

*RES
1 *106:A *16:3 1.16941
2 *170:Q *16:2 5.97981
3 *16:2 *16:3 6.61473
*END

*D_NET *32 0.00133361

*CONN
*I *162:Q O *C 28.46 15.88 *L 0 *D NOR2XL
*I *121:A I *C 33.32 14.84 *L 0.00231 *D CLKBUFX3

*CAP
1 *32:2 0.000369112
2 *32:3 0.000231693
3 *32:4 0.000172484
4 *32:5 0.000560324

*RES
1 *121:A *32:2 1.16941
2 *32:3 *32:4 0.299929
3 *32:2 *32:5 2.0658
4 *32:5 *32:3 0.40375
5 *32:3 *162:Q 0.40375
*END

*D_NET *85 0.0123167

*CONN
*I *165:B I *C 72.52 36.12 *L 0.00142 *D NOR2XL
*I *149:B I *C 38.36 36.12 *L 0.00142 *D NOR2XL
*I *145:B I *C 26.6 36.12 *L 0.00142 *D NOR2XL
*I *141:B I *C 42.84 26.04 *L 0.00142 *D NOR2XL
*I *136:Q O *C 51.1 39.9 *L 0 *D NAND2XL

*CAP
1 *165:B 0.000413082
2 *145:B 0.000440861
3 *141:B 7.47884e-05
4 *85:5 0.00012402
5 *85:6 0.00238666
6 *85:7 0.000346482
7 *85:8 0.00072517
8 *85:9 0.000101395
9 *85:10 0.000329438
10 *85:11 0.000361395
11 *85:12 0.000120567
12 *85:13 0.00027326
13 *85:14 6.34399e-05
14 *85:15 0.000350471
15 *85:16 0.00213788
16 *85:17 0.00406783

*RES
1 *85:15 *85:16 0.723812
2 *85:5 *85:18 0.354923
3 *85:10 *85:11 1.49784
4 *85:12 *85:17 7.099
5 *85:16 *85:17 4.74662
6 *145:B *85:11 1.95685
7 *85:19 *85:8 3.4862
8 *85:7 *85:16 1.04722
9 *141:B *85:5 0.295292
10 *85:18 *85:6 2.25214
11 *85:8 *85:9 0.354923
12 *165:B *85:12 1.16104
13 *85:9 *85:10 0.64347
14 *85:7 *85:19 0.354923
15 *85:13 *85:14 0.226191
16 *85:6 *85:15 3.44647
17 *85:17 *85:13 0.40375
18 *85:13 *136:Q 0.40375
19 *85:15 *149:B 0.40375
*END

*D_NET *39 0.00764962

*CONN
*P *39 O *C 31.08 0 *L 0
*I *91:Q O *C 79.49 36.42 *L 0 *D CLKBUFX4

*CAP
1 *39 0.000239734
2 *39:2 0.000398431
3 *39:3 0.000874524
4 *39:4 0.00278647
5 *39:5 0.000304543
6 *39:6 0.00304592

*RES
1 *39:7 *39:5 0.299929
2 *39:4 *39:6 7.61476
3 *91:Q *39:2 0.946609
4 *39:2 *39:3 2.60866
5 *39:3 *39:4 11.2275
6 *39:6 *39:5 0.40375
7 *39:5 *39 0.40375
*END

*D_NET *55 0.00650807

*CONN
*P *55 O *C 49 0 *L 0
*I *94:Q O *C 67.73 26.44 *L 0 *D CLKBUFX3

*CAP
1 *55 0.000303841
2 *94:Q 0.000140221
3 *55:2 0.000131277
4 *55:3 0.00257461
5 *55:4 0.00274094
6 *55:5 0.000617183

*RES
1 *94:Q *55:2 0.669913
2 *55:2 *55:3 7.06553
3 *55:4 *55:5 1.23319
4 *55:3 *55:4 7.17432
5 *55 *55:5 0.40375
*END

*D_NET *1 0.00925857

*CONN
*I *139:Q O *C 19.5 25.96 *L 0 *D NOR2XL
*I *91:A I *C 78.68 35 *L 0.00243 *D CLKBUFX4

*CAP
1 *139:Q 0.000408221
2 *1:2 0.00121906
3 *1:3 0.00763129

*RES
1 *139:Q *1:3 1.09409
2 *91:A *1:2 2.93709
3 *1:2 *1:3 20.022
*END

*D_NET *17 0.00637652

*CONN
*I *128:A I *C 24.36 45.08 *L 0.00148 *D NAND2XL
*I *127:A I *C 34.44 35 *L 0.00148 *D NAND2XL
*I *124:Q O *C 52.22 34.02 *L 0 *D CLKINVX1

*CAP
1 *17:3 0.000261216
2 *17:4 0.000163517
3 *17:5 0.000155048
4 *17:6 0.00284411
5 *17:7 0.00140783
6 *17:8 0.000188959
7 *17:9 0.00135584

*RES
1 *17:6 *17:9 0.328429
2 *17:5 *17:9 3.25715
3 *17:6 *17:10 6.22772
4 *17:5 *17:7 4.09813
5 *17:3 *17:4 0.299929
6 *17:7 *17:8 0.299929
7 *17:10 *17:3 0.40375
8 *17:9 *127:A 0.40375
9 *17:7 *128:A 0.40375
10 *17:3 *124:Q 0.40375
*END

*D_NET *33 0.00866995

*CONN
*I *169:Q O *C 64.3 15.88 *L 0 *D NOR2XL
*I *122:A I *C 13.16 35 *L 0.00243 *D CLKBUFX4

*CAP
1 *169:Q 0.000166996
2 *33:2 0.000702322
3 *33:3 0.000156826
4 *33:4 0.00764381

*RES
1 *122:A *33:4 5.65138
2 *169:Q *33:2 0.617026
3 *33:2 *33:3 1.67042
4 *33:3 *33:4 16.9458
*END

*D_NET *86 0.0200533

*CONN
*I *153:B I *C 73.64 15.96 *L 0.00142 *D NOR2XL
*I *152:B I *C 57.4 46.2 *L 0.00142 *D NOR2XL
*I *151:B I *C 46.76 15.96 *L 0.00142 *D NOR2XL
*I *148:B I *C 17.64 36.12 *L 0.00142 *D NOR2XL
*I *132:Q O *C 60.06 39.9 *L 0 *D NAND2XL

*CAP
1 *151:B 0.000143026
2 *148:B 0.00026293
3 *132:Q 0.000356191
4 *86:5 0.00071545
5 *86:6 0.000209681
6 *86:7 0.000100652
7 *86:8 0.00115765
8 *86:9 0.0001683
9 *86:10 0.000140187
10 *86:11 0.000136265
11 *86:12 0.00122092
12 *86:13 9.30769e-05
13 *86:14 0.00162927
14 *86:15 0.00082663
15 *86:16 0.000134552
16 *86:17 0.000655507
17 *86:18 0.000107657
18 *86:19 0.00108629
19 *86:20 0.00101531
20 *86:21 0.000218766
21 *86:22 7.96018e-05
22 *86:23 0.00117373
23 *86:24 0.000143611
24 *86:25 0.00133678
25 *86:26 0.000376262
26 *86:27 0.000587609
27 *86:28 0.000166016
28 *86:29 0.000117194
29 *86:30 0.000409231
30 *86:31 0.000791753
31 *86:32 9.39306e-05
32 *86:33 0.00014309
33 *86:34 0.000267749
34 *86:35 0.000211941
35 *86:36 0.00073226
36 *86:37 6.22651e-05
37 *86:38 0.00035493
38 *86:39 6.27351e-05
39 *86:40 0.00107351
40 *86:41 0.00140491
41 *86:42 8.58843e-05

*RES
1 *151:B *86:16 0.669913
2 *86:15 *86:16 2.04069
3 *86:30 *86:43 0.899281
4 *86:22 *86:23 4.77314
5 *86:37 *86:38 0.746321
6 *86:44 *86:26 0.64347
7 *86:7 *86:8 5.09487
8 *86:45 *86:15 0.64347
9 *86:11 *86:12 3.21735
10 *132:Q *86:30 1.12756
11 *86:11 *86:31 1.09409
12 *86:39 *86:40 3.27966
13 *86:10 *86:13 0.354923
14 *86:18 *86:19 2.89561
15 *86:32 *86:33 0.299929
16 *86:36 *86:37 0.147476
17 *86:21 *86:22 0.194056
18 *86:25 *86:44 0.676658
19 *86:6 *86:7 0.354923
20 *86:28 *86:29 0.452382
21 *86:46 *86:17 3.16446
22 *86:14 *86:45 0.354923
23 *148:B *86:27 1.31338
24 *86:35 *86:42 0.537375
25 *86:43 *86:31 1.06624
26 *86:20 *86:21 0.64347
27 *86:47 *86:41 3.828
28 *86:47 *86:40 0.147476
29 *86:17 *86:18 0.354923
30 *86:5 *86:6 0.64347
31 *86:9 *86:10 0.590583
32 *86:24 *86:25 6.06007
33 *86:48 *86:35 0.147476
34 *86:13 *86:14 7.02528
35 *86:19 *86:20 2.94546
36 *86:38 *86:39 0.147476
37 *86:48 *86:36 2.01299
38 *153:B *86:5 2.07417
39 *86:49 *86:9 0.64347
40 *86:12 *86:46 0.354923
41 *86:23 *86:24 0.515791
42 *86:8 *86:49 0.354923
43 *86:26 *86:27 2.58355
44 *86:41 *86:32 0.40375
45 *86:42 *86:34 0.40375
46 *86:32 *86:28 0.40375
47 *86:34 *86:30 0.40375
48 *86:31 *152:B 0.40375
49 *86:28 *86:9 0.40375
*END

*D_NET *40 0.00746305

*CONN
*P *40 O *C 32.2 0 *L 0
*I *110:Q O *C 50.93 46.6 *L 0 *D CLKBUFX3

*CAP
1 *40 0.000394807
2 *40:2 0.000621284
3 *40:3 0.00253582
4 *40:4 0.00391114

*RES
1 *110:Q *40:2 1.30851
2 *40:3 *40:4 13.9752
3 *40:2 *40:3 6.58962
4 *40:4 *40 0.40375
*END

*D_NET *56 0.00702933

*CONN
*P *56 O *C 50.12 0 *L 0
*I *109:Q O *C 54.85 46.6 *L 0 *D CLKBUFX3

*CAP
1 *56 0.000306008
2 *56:2 0.00155014
3 *56:3 0.000971475
4 *56:4 0.00420171

*RES
1 *109:Q *56:2 2.93709
2 *56:3 *56:4 12.3132
3 *56:2 *56:3 1.88485
4 *56:4 *56 0.40375
*END

*D_NET *2 0.00650483

*CONN
*I *140:Q O *C 73.26 25.96 *L 0 *D NOR2XL
*I *92:A I *C 24.36 24.92 *L 0.00231 *D CLKBUFX3

*CAP
1 *140:Q 8.40388e-05
2 *2:2 0.000171701
3 *2:3 0.000163253
4 *2:4 0.000234046
5 *2:5 4.89259e-05
6 *2:6 0.00580287

*RES
1 *2:2 *2:6 15.9992
2 *92:A *2:4 0.988453
3 *2:2 *2:3 0.299929
4 *2:4 *2:5 0.118976
5 *2:6 *2:4 0.40375
6 *2:2 *140:Q 0.40375
*END

*D_NET *18 0.00266692

*CONN
*I *141:Q O *C 43.22 25.96 *L 0 *D NOR2XL
*I *107:A I *C 46.2 35 *L 0.00231 *D CLKBUFX3

*CAP
1 *141:Q 0.000337334
2 *18:2 0.00146865
3 *18:3 0.000860934

*RES
1 *107:A *18:2 3.70274
2 *141:Q *18:3 0.732179
3 *18:2 *18:3 1.729
*END

*D_NET *87 0.0116814

*CONN
*I *169:B I *C 64.68 15.96 *L 0.00142 *D NOR2XL
*I *167:B I *C 37.8 26.04 *L 0.00142 *D NOR2XL
*I *156:B I *C 60.76 36.12 *L 0.00142 *D NOR2XL
*I *154:B I *C 55.72 15.96 *L 0.00142 *D NOR2XL
*I *134:Q O *C 58.1 39.9 *L 0 *D NAND2XL

*CAP
1 *169:B 0.000477872
2 *167:B 0.000424878
3 *154:B 0.000343745
4 *87:5 0.000184684
5 *87:6 0.000447133
6 *87:7 0.000647676
7 *87:8 0.000942973
8 *87:9 0.000132051
9 *87:10 0.000230772
10 *87:11 8.33467e-05
11 *87:12 0.00189603
12 *87:13 0.000893524
13 *87:14 0.000149362
14 *87:15 0.000401674
15 *87:16 0.000168302
16 *87:17 0.0012089
17 *87:18 0.00208978
18 *87:19 0.000958682

*RES
1 *87:15 *87:16 0.509382
2 *87:10 *87:17 1.04722
3 *87:7 *87:9 0.354923
4 *87:16 *87:18 1.985
5 *87:5 *87:6 0.617027
6 *169:B *87:5 1.53131
7 *167:B *87:14 1.95685
8 *87:11 *87:12 7.02528
9 *87:17 *87:19 1.05224
10 *87:17 *87:18 2.86177
11 *87:12 *87:20 0.194056
12 *87:6 *87:21 0.354923
13 *87:20 *87:13 0.64347
14 *134:Q *87:15 1.15555
15 *87:8 *87:18 3.35225
16 *87:21 *87:7 3.16446
17 *156:B *87:8 2.43608
18 *87:10 *87:11 0.194056
19 *87:9 *87:19 1.69069
20 *87:13 *87:14 2.04069
21 *154:B *87:19 1.12756
*END

*D_NET *41 0.00427184

*CONN
*P *41 O *C 33.32 0 *L 0
*I *92:Q O *C 25.17 26.44 *L 0 *D CLKBUFX3

*CAP
1 *41 0.000268282
2 *92:Q 9.38743e-05
3 *41:2 0.00013345
4 *41:3 0.000195838
5 *41:4 0.00344139
6 *41:5 0.000139002

*RES
1 *41:2 *41:3 0.328429
2 *41:4 *41:5 7.56654
3 *41:2 *41:4 3.01241
4 *41 *41:3 0.40375
5 *41:5 *92:Q 0.40375
*END

*D_NET *57 0.00873946

*CONN
*P *57 O *C 51.24 0 *L 0
*I *95:Q O *C 75.57 36.52 *L 0 *D CLKBUFX3

*CAP
1 *57 0.000305253
2 *57:2 0.000261031
3 *57:3 0.000212339
4 *57:4 0.0024984
5 *57:5 0.000804689
6 *57:6 0.00111155
7 *57:7 0.0035462

*RES
1 *57:5 *57:6 2.20491
2 *57:4 *57:8 5.64301
3 *57:2 *57:3 0.407144
4 *57:4 *57:5 3.12641
5 *57:6 *57:7 9.23697
6 *57:7 *57 0.40375
7 *57:8 *57:2 0.40375
8 *57:2 *95:Q 0.40375
*END

*D_NET *3 0.00823244

*CONN
*I *148:Q O *C 17.26 36.04 *L 0 *D NOR2XL
*I *93:A I *C 57.96 14.84 *L 0.00231 *D CLKBUFX3

*CAP
1 *148:Q 0.000166739
2 *93:A 0.00123384
3 *3:2 0.000151054
4 *3:3 0.00540976
5 *3:4 0.000326239
6 *3:5 0.000121664
7 *3:6 0.000823144

*RES
1 *3:5 *3:6 2.54171
2 *93:A *3:2 3.70275
3 *148:Q *3:3 1.27504
4 *3:3 *3:5 13.2849
5 *3:6 *3:4 0.40375
6 *3:4 *3:2 0.40375
*END

*D_NET *19 0.00312706

*CONN
*I *152:Q O *C 57.78 46.12 *L 0 *D NOR2XL
*I *108:A I *C 38.36 45.08 *L 0.00231 *D CLKBUFX3

*CAP
1 *19:2 0.000234767
2 *19:3 0.000162169
3 *19:4 0.00273012

*RES
1 *108:A *19:4 1.16941
2 *19:2 *19:3 0.299929
3 *19:4 *19:5 6.77058
4 *19:5 *19:2 0.40375
5 *19:2 *152:Q 0.40375
*END

*D_NET *72 0.00137834

*CONN
*I *174:A I *C 71.1 39.19 *L 0.0012 *D NOR2XL
*I *173:Q O *C 72.86 46.42 *L 0 *D INVXL
*I *125:B I *C 73.06 40.16 *L 0.00239 *D AND2X3

*CAP
1 *174:A 0.000228884
2 *173:Q 0.000124837
3 *72:3 0.000110467
4 *72:4 0.000880944
5 *72:5 3.32046e-05

*RES
1 *125:B *72:4 1.35036
2 *174:A *72:5 0.793649
3 *72:4 *72:5 0.147476
4 *72:4 *72:6 1.27307
5 *173:Q *72:3 0.617026
6 *72:6 *72:3 0.40375
*END

*D_NET *88 0.0132458

*CONN
*I *170:B I *C 68.04 46.2 *L 0.00142 *D NOR2XL
*I *160:B I *C 58.52 36.12 *L 0.00142 *D NOR2XL
*I *157:B I *C 37.8 15.96 *L 0.00142 *D NOR2XL
*I *143:B I *C 54.04 36.12 *L 0.00142 *D NOR2XL
*I *138:Q O *C 69.58 29.82 *L 0 *D NAND2XL

*CAP
1 *157:B 0.00015615
2 *143:B 6.97937e-05
3 *138:Q 0.000328702
4 *88:5 0.00326572
5 *88:6 0.000850795
6 *88:7 5.91799e-05
7 *88:8 0.000110697
8 *88:9 0.00159854
9 *88:10 0.00190985
10 *88:11 0.00294059
11 *88:12 0.000687763
12 *88:13 0.00126805

*RES
1 *88:8 *88:10 2.65051
2 *88:5 *88:6 3.52923
3 *138:Q *88:5 1.2605
4 *88:11 *88:12 2.22165
5 *143:B *88:8 0.295292
6 *157:B *88:12 0.669913
7 *88:9 *88:10 2.84273
8 *88:6 *88:7 0.311886
9 *88:6 *88:13 3.62742
10 *88:7 *88:9 1.93041
11 *88:14 *88:11 12.8958
12 *170:B *88:5 5.7267
13 *160:B *88:9 2.61703
14 *88:13 *88:14 0.40375
*END

*D_NET *42 0.00728772

*CONN
*P *42 O *C 34.44 0 *L 0
*I *111:Q O *C 43.09 46.6 *L 0 *D CLKBUFX3

*CAP
1 *42 0.000303094
2 *42:2 0.0012332
3 *42:3 0.0006537
4 *42:4 0.00392638
5 *42:5 0.000810821
6 *42:6 0.000360527

*RES
1 *42:5 *42:6 1.45599
2 *111:Q *42:2 2.93709
3 *42:2 *42:3 1.16104
4 *42:4 *42:5 2.02396
5 *42:3 *42:4 11.6312
6 *42:6 *42 0.40375
*END

*D_NET *58 0.00793929

*CONN
*P *58 O *C 52.36 0 *L 0
*I *112:Q O *C 47.01 46.6 *L 0 *D CLKBUFX3

*CAP
1 *58 0.000403132
2 *112:Q 0.000221892
3 *58:2 0.000145443
4 *58:3 0.000169919
5 *58:4 0.00426927
6 *58:5 0.00272963

*RES
1 *112:Q *58:2 0.991648
2 *58:3 *58:4 10.1334
3 *58:2 *58:5 4.71314
4 *58:3 *58:5 1.92669
5 *58 *58:4 0.40375
*END

*D_NET *4 0.00393074

*CONN
*I *154:Q O *C 55.34 15.88 *L 0 *D NOR2XL
*I *94:A I *C 66.92 24.92 *L 0.00231 *D CLKBUFX3

*CAP
1 *154:Q 0.000148712
2 *4:2 0.00151812
3 *4:3 0.00154602
4 *4:4 0.000162196
5 *4:5 0.000162263
6 *4:6 0.000177481
7 *4:7 0.000215945

*RES
1 *154:Q *4:3 1.07366
2 *4:5 *4:6 0.401661
3 *94:A *4:2 3.8837
4 *4:3 *4:7 3.87533
5 *4:3 *4:4 0.299929
6 *4:7 *4:8 0.765656
7 *4:8 *4:5 0.40375
8 *4:5 *4:2 0.40375
*END

*D_NET *20 0.00403985

*CONN
*I *156:Q O *C 61.14 36.04 *L 0 *D NOR2XL
*I *109:A I *C 54.04 45.08 *L 0.00231 *D CLKBUFX3

*CAP
1 *20:2 0.000385721
2 *20:3 0.00221739
3 *20:4 0.00028239
4 *20:5 0.000307389
5 *20:6 9.79052e-05
6 *20:7 0.000749051

*RES
1 *20:4 *20:5 0.452382
2 *109:A *20:3 2.07417
3 *20:3 *20:6 2.77288
4 *20:8 *20:2 0.226191
5 *20:6 *20:7 2.36076
6 *20:7 *20:4 0.40375
7 *20:4 *20:8 0.8075
8 *20:8 *156:Q 0.40375
*END

*D_NET *73 0.00553852

*CONN
*I *172:Q O *C 59.42 38.7 *L 0 *D INVXL
*I *138:B I *C 69.72 29.4 *L 0.00154 *D NAND2XL
*I *135:B I *C 74.76 29.4 *L 0.00154 *D NAND2XL
*I *134:B I *C 57.96 39.48 *L 0.00154 *D NAND2XL
*I *133:B I *C 64.68 35.56 *L 0.00154 *D NAND2XL

*CAP
1 *172:Q 0.000132786
2 *138:B 0.000117321
3 *135:B 0.000145123
4 *134:B 7.94207e-05
5 *73:5 0.00180758
6 *73:6 0.0001382
7 *73:7 0.000160012
8 *73:8 0.000196667
9 *73:9 0.000256479
10 *73:10 8.88276e-05
11 *73:11 0.000176719
12 *73:12 0.001357
13 *73:13 0.000277048
14 *73:14 0.000605339

*RES
1 *135:B *73:15 0.321735
2 *73:7 *73:8 0.299929
3 *73:11 *73:12 2.46955
4 *138:B *73:5 2.89561
5 *172:Q *73:16 0.617026
6 *73:11 *73:13 0.723812
7 *73:16 *73:6 0.354923
8 *172:Q *73:12 1.16941
9 *134:B *73:6 0.295292
10 *73:5 *73:13 2.36076
11 *73:9 *73:10 0.226191
12 *73:17 *73:14 1.4811
13 *73:17 *73:7 0.40375
14 *73:14 *73:9 0.40375
15 *73:9 *138:B 0.40375
16 *73:13 *133:B 0.40375
17 *73:7 *73:15 0.40375
*END

*D_NET *89 0.01488

*CONN
*I *163:B I *C 30.52 46.2 *L 0.00142 *D NOR2XL
*I *161:B I *C 28.84 26.04 *L 0.00142 *D NOR2XL
*I *146:B I *C 49.56 36.12 *L 0.00142 *D NOR2XL
*I *144:B I *C 16.52 46.2 *L 0.00142 *D NOR2XL
*I *135:Q O *C 74.62 29.82 *L 0 *D NAND2XL

*CAP
1 *163:B 7.28065e-05
2 *161:B 0.000147966
3 *146:B 0.000129417
4 *144:B 0.000316742
5 *135:Q 0.000587853
6 *89:5 0.000524945
7 *89:6 7.02259e-05
8 *89:7 0.000181686
9 *89:8 0.000125514
10 *89:9 0.000288073
11 *89:10 0.00019205
12 *89:11 0.000378223