*SPEF "IEEE 1481-1998"
*DESIGN "cur_dec"
*DATE "Tue Aug 29 16:02:25 2017"
*VENDOR "Cadence Design Systems, Inc."
*PROGRAM "Innovus"
*VERSION "15.28-s017_1"
*DESIGN_FLOW "PIN_CAP NONE" "NAME_SCOPE LOCAL"
*DIVIDER /
*DELIMITER :
*BUS_DELIMITER []
*T_UNIT 1 NS
*C_UNIT 1 PF
*R_UNIT 1 OHM
*L_UNIT 1 HENRY

// MMMC spef file for corner 'ams_rc_corner_maxCaR'

*NAME_MAP

*1 CTS_80
*2 CTS_79
*3 CTS_78
*4 CTS_77
*5 CTS_76
*6 CTS_75
*7 CTS_74
*8 CTS_73
*9 sll_18_12/CTS_71
*10 CTS_72
*11 CTS_71
*12 CTS_70
*13 CTS_69
*14 CTS_68
*15 CTS_67
*16 CTS_66
*17 CTS_65
*18 out[15]
*19 out[14]
*20 out[13]
*21 out[12]
*22 out[11]
*23 out[10]
*24 out[9]
*25 out[8]
*26 out[7]
*27 out[6]
*28 out[5]
*29 out[4]
*30 out[3]
*31 out[2]
*32 out[1]
*33 out[0]
*34 in[3]
*35 in[2]
*36 in[1]
*37 in[0]
*38 logic_1_1_net
*39 sll_18_12/n_15
*40 sll_18_12/n_13
*41 sll_18_12/n_12
*42 sll_18_12/n_11
*43 sll_18_12/n_6
*44 sll_18_12/n_5
*45 sll_18_12/n_4
*46 sll_18_12/n_3
*47 sll_18_12/n_2
*48 sll_18_12/n_0
*49 CTS_ccl_BUF_in_0__G0_L3_8
*50 CTS_ccl_BUF_in_0__G0_L3_7
*51 CTS_ccl_BUF_in_0__G0_L3_6
*52 CTS_ccl_BUF_in_0__G0_L3_5
*53 CTS_ccl_BUF_in_0__G0_L3_4
*54 CTS_ccl_BUF_in_0__G0_L3_3
*55 CTS_ccl_BUF_in_0__G0_L3_2
*56 CTS_ccl_BUF_in_0__G0_L3_1
*57 CTS_ccl_BUF_in_0__G0_L4_8
*58 CTS_ccl_BUF_in_0__G0_L4_7
*59 CTS_ccl_BUF_in_0__G0_L4_6
*60 CTS_ccl_BUF_in_0__G0_L4_5
*61 CTS_ccl_BUF_in_0__G0_L4_4
*62 CTS_ccl_BUF_in_0__G0_L4_3
*63 CTS_ccl_BUF_in_0__G0_L4_2
*64 CTS_ccl_BUF_in_0__G0_L4_1
*65 tie_1_cell
*66 sll_18_12/CTS_cex_INV_in_0__G0_L1_1
*67 sll_18_12/g68
*68 sll_18_12/g70
*69 sll_18_12/g178
*70 sll_18_12/g179
*71 sll_18_12/g180
*72 sll_18_12/g181
*73 sll_18_12/g67
*74 sll_18_12/g69
*75 sll_18_12/g162
*76 sll_18_12/g163
*77 sll_18_12/g164
*78 sll_18_12/g165
*79 sll_18_12/g166
*80 sll_18_12/g167
*81 sll_18_12/g168
*82 sll_18_12/g169
*83 sll_18_12/g170
*84 sll_18_12/g171
*85 sll_18_12/g172
*86 sll_18_12/g173
*87 sll_18_12/g174
*88 sll_18_12/g175
*89 sll_18_12/g176
*90 sll_18_12/g177
*91 sll_18_12/g64
*92 sll_18_12/g71


*PORTS

*18 O *C 33.32 0
*19 O *C 34.44 0
*20 O *C 35.56 0
*21 O *C 36.68 0
*22 O *C 37.8 0
*23 O *C 38.92 0
*24 O *C 40.04 0
*25 O *C 41.16 0
*26 O *C 42.28 0
*27 O *C 43.4 0
*28 O *C 44.52 0
*29 O *C 45.64 0
*30 O *C 46.76 0
*31 O *C 47.88 0
*32 O *C 49 0
*33 O *C 50.12 0
*34 I *C 42.28 49.84
*35 I *C 41.16 49.84
*36 I *C 40.04 49.84
*37 I *C 38.92 49.84


*D_NET *1 0.00811609

*CONN
*I *75:Q O *C 18.38 15.88 *L 0 *D NOR2XL
*I *49:A I *C 68.04 35 *L 0.00231 *D CLKBUFX3

*CAP
1 *1:2 3.874e-05
2 *1:4 0.00251033
3 *1:5 0.00253021
4 *1:6 0.00012831
5 *1:7 0.00276127
6 *1:8 0.00014723

*RES
1 *1:3 *1:2 0.096032
2 *1:2 *1:6 0.096032
3 *49:A *1:6 11.305
4 *1:6 *1:8 0.384128
5 *1:8 *1:4 24.1262
6 *1:7 *1:4 21.4373
7 *1:5 *1:7 14.1417
8 *75:Q *1:5 5.6525
*END

*D_NET *17 0.00269407

*CONN
*I *88:Q O *C 63.18 15.88 *L 0 *D NOR2XL
*I *64:A I *C 47.88 14.84 *L 0.00231 *D CLKBUFX3

*CAP
1 *17:2 0.00016061
2 *17:4 0.00015497
3 *17:6 0.00011131
4 *17:7 0.00020124
5 *17:8 0.00027432
6 *17:9 0.00179162

*RES
1 *17:6 *17:8 5.6525
2 *17:4 *17:8 0.384128
3 *17:5 *17:4 0.384128
4 *17:8 *17:9 5.6525
5 *17:9 *17:7 15.7109
6 *17:2 *17:7 0.384128
7 *17:3 *17:2 0.384128
8 *64:A *17:7 11.305
9 *17:6 *88:Q 0.63906
*END

*D_NET *33 0.00519001

*CONN
*P *33 O *C 50.12 0 *L 0.25
*I *63:Q O *C 24.05 16.36 *L 0 *D CLKBUFX3

*CAP
1 *33 0.00013147
2 *33:2 0.00124758
3 *33:3 0.00114115
4 *33:4 8.288e-05
5 *33:5 0.00013068
6 *33:6 0.00082573
7 *33:7 0.00163052

*RES
1 *63:Q *33:4 0.63906
2 *33:6 *33:4 9.42272
3 *33:6 *33:7 5.6525
4 *33:7 *33:3 11.1752
5 *33:5 *33:3 11.8341
6 *33:2 *33:5 6.14605
7 *33:2 *33 5.6525
*END

*D_NET *2 0.00177698

*CONN
*I *76:Q O *C 54.22 15.88 *L 0 *D NOR2XL
*I *50:A I *C 55.72 24.92 *L 0.00231 *D CLKBUFX3

*CAP
1 *76:Q 0.00019015
2 *2:3 0.00158683

*RES
1 *76:Q *2:2 1.69163
2 *2:3 *2:2 12.9509
3 *50:A *2:3 11.305
*END

*D_NET *18 0.00752517

*CONN
*P *18 O *C 33.32 0 *L 0.25
*I *49:Q O *C 68.85 36.52 *L 0 *D CLKBUFX3

*CAP
1 *18:2 0.00245947
2 *18:3 0.00035324
3 *18:4 0.00375028
4 *18:6 9.364e-05
5 *18:7 0.00086854

*RES
1 *18 *18:6 0.455192
2 *18:6 *18:3 6.34969
3 *18:3 *18:7 5.6525
4 *18:7 *18:2 5.0292
5 *18:4 *18:2 24.8944
6 *18:4 *18:5 23.0477
7 *49:Q *18:5 5.6525
*END

*D_NET *34 0.0100555

*CONN
*P *34 I *C 42.28 49.84 *L 0
*I *91:A I *C 55.72 36.12 *L 0.00134 *D INVXL
*I *71:B I *C 36.68 15.4 *L 0.00154 *D NAND2XL
*I *69:B I *C 25.48 25.48 *L 0.00154 *D NAND2XL

*CAP
1 *34 0.00040935
2 *69:B 0.00043208
3 *34:5 0.00077486
4 *34:6 0.00088838
5 *34:8 0.00056926
6 *34:9 0.00013084
7 *34:10 0.00058789
8 *34:11 7.298e-05
9 *34:12 0.00023304
10 *34:13 0.00090058
11 *34:14 0.00099266
12 *34:15 0.0003908
13 *34:16 0.00127748
14 *34:17 0.00163853
15 *34:18 0.00075676

*RES
1 *34:17 *34:9 6.75018
2 *34:8 *34:9 0.605457
3 *34:8 *34:11 4.84936
4 *34:11 *34:12 0.53204
5 *34:12 *91:A 1.67483
6 *34:16 *34:17 6.51854
7 *34:16 *34:19 0.313064
8 *34:18 *34:19 3.50494
9 *34:15 *34:18 0.372488
10 *34:15 *34:4 6.73382
11 *34:4 *34:5 6.63121
12 *34:10 *34:5 4.39073
13 *34:6 *34:10 7.72889
14 *34:13 *34:6 9.42272
15 *34:7 *34:13 5.6525
16 *69:B *34:7 3.33816
17 *34:14 *34:10 8.72552
18 *71:B *34:14 5.6525
19 *34:20 *34:17 14.4164
20 *34 *34:20 3.87681
*END

*D_NET *3 0.00214936

*CONN
*I *80:Q O *C 62.06 25.96 *L 0 *D NOR2XL
*I *51:A I *C 64.12 35 *L 0.00231 *D CLKBUFX3

*CAP
1 *3:2 0.00035734
2 *3:3 0.00013894
3 *3:4 0.00135141
4 *3:5 0.00030167

*RES
1 *3:2 *3:3 0.697192
2 *3:5 *3:3 7.26008
3 *3:5 *3:4 11.7986
4 *51:A *3:4 11.305
5 *80:Q *3:2 5.6525
*END

*D_NET *19 0.00601901

*CONN
*P *19 O *C 34.44 0 *L 0.25
*I *59:Q O *C 66.61 16.36 *L 0 *D CLKBUFX3

*CAP
1 *19:2 0.00275975
2 *19:3 0.00168241
3 *19:4 0.0006454
4 *19:6 0.00013323
5 *19:7 0.00079822

*RES
1 *19 *19:6 0.455192
2 *19:6 *19:3 12.8799
3 *19:3 *19:7 5.6525
4 *19:7 *19:2 4.26094
5 *19:4 *19:2 23.3579
6 *19:4 *19:5 2.6889
7 *59:Q *19:5 5.6525
*END

*D_NET *35 0.00634245

*CONN
*P *35 I *C 41.16 49.84 *L 0
*I *74:A I *C 28.84 29.96 *L 0.00148 *D NAND2XL
*I *73:B I *C 27.16 29.4 *L 0.00154 *D NAND2XL
*I *68:B I *C 39.48 35 *L 0.00238 *D OR2X3
*I *67:A I *C 23.8 29.96 *L 0.00208 *D OR2X3

*CAP
1 *74:A 0.00124031
2 *35:5 4.015e-05
3 *35:7 4.015e-05
4 *35:9 4.015e-05
5 *35:12 9.854e-05
6 *35:13 0.00011898
7 *35:14 0.00017561
8 *35:15 8.379e-05
9 *35:16 0.0004038
10 *35:17 8.703e-05
11 *35:18 0.00020804
12 *35:19 0.00271735
13 *35:20 0.00029542
14 *35:21 7.629e-05
15 *35:22 0.00071684

*RES
1 *35:19 *35:20 9.53214
2 *35:20 *35:11 0.792148
3 *35:11 *35:12 5.6525
4 *35 *35:12 0.455192
5 *68:B *35:19 5.6525
6 *35:19 *35:13 9.10965
7 *74:A *35:13 10.428
8 *74:A *35:17 5.6525
9 *35:5 *35:17 0.096032
10 *35:6 *35:5 0.096032
11 *35:17 *35:18 0.0992837
12 *35:22 *35:18 6.80488
13 *35:21 *35:22 0.443552
14 *35:21 *35:16 6.03663
15 *73:B *35:16 5.6525
16 *35:7 *35:16 0.096032
17 *35:8 *35:7 0.096032
18 *35:22 *35:15 7.8862
19 *35:14 *35:15 0.455192
20 *67:A *35:14 5.6525
21 *35:9 *35:14 0.096032
22 *35:10 *35:9 0.096032
*END

*D_NET *4 0.00138483

*CONN
*I *89:Q O *C 16.14 25.96 *L 0 *D NOR2XL
*I *52:A I *C 21 24.92 *L 0.00231 *D CLKBUFX3

*CAP
1 *4:2 0.00016061
2 *4:4 0.00016061
3 *4:6 0.00032817
4 *4:7 0.00021032
5 *4:8 0.00052512

*RES
1 *4:5 *4:4 0.384128
2 *4:4 *4:6 0.384128
3 *89:Q *4:6 5.6525
4 *4:8 *4:6 9.18072
5 *4:7 *4:8 5.6525
6 *52:A *4:7 11.305
7 *4:2 *4:7 0.384128
8 *4:3 *4:2 0.384128
*END

*D_NET *20 0.00565148

*CONN
*P *20 O *C 35.56 0 *L 0.25
*I *50:Q O *C 56.53 26.44 *L 0 *D CLKBUFX3

*CAP
1 *20 0.00014909
2 *20:2 0.0017157
3 *20:3 0.00077338
4 *20:4 0.0009668
5 *20:5 0.00204651

*RES
1 *20:3 *20:2 3.87681
2 *20:4 *20:2 16.4436
3 *20:4 *20:6 4.22541
4 *50:Q *20:6 5.6525
5 *20:5 *20:3 18.3287
6 *20 *20:5 5.6525
*END

*D_NET *36 0.00603956

*CONN
*P *36 I *C 40.04 49.84 *L 0
*I *92:A I *C 26.6 36.12 *L 0.00134 *D INVXL
*I *74:B I *C 27.72 29.4 *L 0.00154 *D NAND2XL
*I *68:A I *C 38.92 35 *L 0.00208 *D OR2X3

*CAP
1 *92:A 0.00014384
2 *36:5 0.0005532
3 *36:6 0.00039898
4 *36:8 0.0002367
5 *36:9 9.243e-05
6 *36:10 0.00046719
7 *36:12 0.00093709
8 *36:13 9.089e-05
9 *36:14 0.00030843
10 *36:15 0.00034492
11 *36:17 0.00024229
12 *36:18 0.0001224
13 *36:19 0.00042625
14 *36:21 0.00126174
15 *36:22 0.00027542
16 *36:23 0.00013779

*RES
1 *36:9 *36:10 0.290175
2 *36:10 *36:11 1.5843
3 *36:5 *36:11 0.313064
4 *36:5 *36:6 2.29313
5 *36:4 *36:6 5.6525
6 *92:A *36:4 1.14279
7 *36:6 *36:7 1.15238
8 *36:21 *36:7 12.9509
9 *36:15 *36:21 5.6525
10 *36:14 *36:15 1.14074
11 *36:14 *36:20 0.313064
12 *36:19 *36:20 0.792148
13 *68:A *36:19 5.6525
14 *36:15 *36:16 1.14074
15 *36:12 *36:16 0.313064
16 *36:12 *36:13 4.5979
17 *36:13 *36:17 0.372488
18 *36:17 *36:18 1.14074
19 *36:22 *36:18 6.42076
20 *36:22 *36:23 0.756616
21 *36:23 *36 0.40802
22 *36:8 *36:9 0.699662
23 *74:B *36:8 11.305
*END

*D_NET *5 0.00264812

*CONN
*I *79:Q O *C 45.26 15.88 *L 0 *D NOR2XL
*I *53:A I *C 32.2 14.84 *L 0.00231 *D CLKBUFX3

*CAP
1 *5:2 0.00016061
2 *5:4 0.00016061
3 *5:6 0.00011179
4 *5:7 0.00044938
5 *5:8 0.00147299
6 *5:9 0.00029274

*RES
1 *5:6 *79:Q 0.63906
2 *5:6 *5:9 5.6525
3 *5:2 *5:9 0.384128
4 *5:3 *5:2 0.384128
5 *5:9 *5:7 7.9928
6 *5:8 *5:7 11.7986
7 *53:A *5:8 11.305
8 *5:4 *5:8 0.384128
9 *5:5 *5:4 0.384128
*END

*D_NET *21 0.00410759

*CONN
*P *21 O *C 36.68 0 *L 0.25
*I *60:Q O *C 15.09 16.36 *L 0 *D CLKBUFX3

*CAP
1 *21:2 6.571e-05
2 *21:3 0.00154333
3 *21:4 0.00064592
4 *21:5 0.00013067
5 *21:6 0.00172196

*RES
1 *21:4 *21:6 5.6525
2 *21:6 *21:3 19.5522
3 *21:3 *21:2 13.6481
4 *60:Q *21:2 0.63906
5 *21:5 *21:4 7.50208
6 *21:5 *21 0.455192
*END

*D_NET *37 0.00747906

*CONN
*P *37 I *C 38.92 49.84 *L 0
*I *72:A I *C 23.24 35 *L 0.00148 *D NAND2XL
*I *71:A I *C 35.56 14.84 *L 0.00148 *D NAND2XL
*I *66:A I *C 36.68 24.92 *L 0.00211 *D CLKINVX1

*CAP
1 *37:4 0.00016061
2 *37:6 0.00174759
3 *37:7 0.00010008
4 *37:8 0.00146092
5 *37:9 0.00012558
6 *37:10 0.00021468
7 *37:11 0.00028498
8 *37:12 0.00116674
9 *37:13 0.00221788

*RES
1 *37:5 *37:4 0.384128
2 *37:4 *37:10 0.384128
3 *66:A *37:10 11.305
4 *37:10 *37:11 5.6525
5 *37:13 *37:11 22.17
6 *37:12 *37:13 5.6525
7 *37:12 *37 1.57204
8 *37:12 *37:7 14.8716
9 *37:6 *37:7 9.6032
10 *72:A *37:6 5.6525
11 *37:11 *37:9 6.42076
12 *37:8 *37:9 6.91431
13 *71:A *37:8 5.6525
*END

*D_NET *6 0.00691222

*CONN
*I *82:Q O *C 27.34 15.88 *L 0 *D NOR2XL
*I *54:A I *C 60.2 35 *L 0.00231 *D CLKBUFX3

*CAP
1 *6:2 0.00208472
2 *6:3 9.124e-05
3 *6:4 0.00090487
4 *6:6 0.0019604
5 *6:7 0.00046503
6 *6:8 0.00140596

*RES
1 *6:8 *6:2 8.09058
2 *6:4 *6:2 18.7484
3 *6:4 *6:5 3.84128
4 *54:A *6:5 11.305
5 *6:7 *6:8 0.756616
6 *6:7 *6:6 6.73382
7 *6:6 *6:3 15.2557
8 *82:Q *6:3 0.63906
*END

*D_NET *22 0.00479968

*CONN
*P *22 O *C 37.8 0 *L 0.25
*I *52:Q O *C 21.81 26.44 *L 0 *D CLKBUFX3

*CAP
1 *22:2 0.00076816
2 *22:4 0.00013934
3 *22:5 0.00157524
4 *22:6 0.00231694

*RES
1 *22:2 *22:3 3.45715
2 *52:Q *22:3 5.6525
3 *22:5 *22:2 16.095
4 *22:5 *22:6 5.6525
5 *22:6 *22:4 19.0259
6 *22:4 *22 0.455192
*END

*D_NET *39 0.0126827

*CONN
*I *84:B I *C 28.28 36.12 *L 0.00142 *D NOR2XL
*I *83:B I *C 20.44 36.12 *L 0.00142 *D NOR2XL
*I *82:B I *C 27.72 15.96 *L 0.00142 *D NOR2XL
*I *80:B I *C 62.44 26.04 *L 0.00142 *D NOR2XL
*I *68:Q O *C 40.41 36.68 *L 0 *D OR2X3

*CAP
1 *82:B 0.0002718
2 *80:B 6.896e-05
3 *39:5 8.669e-05
4 *39:6 0.0001897
5 *39:7 0.00230011
6 *39:8 0.00015067
7 *39:9 8.669e-05
8 *39:10 0.00028529
9 *39:11 0.00026408
10 *39:12 0.00069279
11 *39:14 0.00014118
12 *39:15 0.00024038
13 *39:17 0.00012131
14 *39:18 0.00032686
15 *39:19 0.00175266
16 *39:21 0.00015068
17 *39:22 8.72e-05
18 *39:23 0.00094419
19 *39:24 0.00026998
20 *39:26 0.0004886
21 *39:27 0.00050326
22 *39:28 0.00216672
23 *39:29 0.00100502
24 *39:30 8.789e-05

*RES
1 *39:12 *39:16 5.47162
2 *39:15 *39:16 0.605457
3 *39:15 *39:18 1.00747
4 *39:27 *39:18 7.18901
5 *84:B *39:27 5.6525
6 *39:18 *39:21 2.19537
7 *39:29 *39:21 10.6345
8 *39:28 *39:29 0.372488
9 *39:28 *39:20 15.9529
10 *82:B *39:20 2.24048
11 *39:21 *39:22 1.09768
12 *39:22 *39:23 0.53204
13 *39:23 *39:25 7.66698
14 *39:24 *39:25 0.605457
15 *39:24 *39:8 1.00747
16 *39:5 *39:8 1.09768
17 *39:5 *39:7 0.53204
18 *39:7 *39:13 19.7415
19 *39:10 *39:13 0.605457
20 *39:19 *39:10 6.75018
21 *39:19 *39:17 14.1033
22 *80:B *39:17 0.503733
23 *39:8 *39:14 5.6525
24 *39:30 *39:14 0.54066
25 *39:30 *39:11 0.54066
26 *68:Q *39:11 5.6525
27 *39:9 *39:12 0.53204
28 *39:6 *39:9 1.09768
29 *39:26 *39:6 7.18901
30 *83:B *39:26 5.6525
*END

*D_NET *7 0.00352997

*CONN
*I *85:Q O *C 53.1 25.96 *L 0 *D NOR2XL
*I *55:A I *C 39.48 14.84 *L 0.00231 *D CLKBUFX3

*CAP
1 *7:2 0.00015497
2 *7:4 0.00139389
3 *7:5 0.0012192
4 *7:6 0.00028987
5 *7:7 0.00047204

*RES
1 *7:3 *7:2 0.384128
2 *7:2 *7:6 0.384128
3 *85:Q *7:6 5.6525
4 *7:6 *7:4 13.3706
5 *7:7 *7:4 6.84042
6 *7:5 *7:7 5.76192
7 *55:A *7:5 11.305
*END

*D_NET *23 0.00524364

*CONN
*P *23 O *C 38.92 0 *L 0.25
*I *57:Q O *C 33.01 36.52 *L 0 *D CLKBUFX3

*CAP
1 *23:2 8.314e-05
2 *23:3 0.00122702
3 *23:4 0.00015637
4 *23:5 0.00060919
5 *23:6 0.00316792

*RES
1 *23:4 *23 0.41966
2 *23:6 *23:4 24.4037
3 *23:5 *23:6 5.6525
4 *23:5 *23:3 8.79659
5 *23:3 *23:2 10.5751
6 *57:Q *23:2 0.63906
*END

*D_NET *40 0.00851295

*CONN
*I *89:B I *C 16.52 26.04 *L 0.00142 *D NOR2XL
*I *81:B I *C 33.32 26.04 *L 0.00142 *D NOR2XL
*I *79:B I *C 45.64 15.96 *L 0.00142 *D NOR2XL
*I *77:B I *C 42.28 26.04 *L 0.00142 *D NOR2XL
*I *67:Q O *C 25.29 28.28 *L 0 *D OR2X3

*CAP
1 *89:B 0.00042955
2 *40:5 0.00016061
3 *40:7 5.534e-05
4 *40:8 0.00020415
5 *40:11 0.00037647
6 *40:12 0.00063191
7 *40:14 0.00024357
8 *40:15 0.00048988
9 *40:16 0.00010794
10 *40:17 0.00083839
11 *40:18 0.00077826
12 *40:19 0.00058758
13 *40:20 0.00109759
14 *40:21 0.0002952
15 *40:23 0.0003445
16 *40:24 0.00012691
17 *40:25 0.00057448
18 *40:26 0.00117062

*RES
1 *40:6 *40:5 0.384128
2 *40:5 *40:21 0.384128
3 *67:Q *40:21 5.6525
4 *40:21 *40:26 5.6525
5 *40:26 *40:24 7.60867
6 *40:23 *40:24 0.372488
7 *40:23 *40:12 6.34969
8 *40:12 *40:14 3.79678
9 *40:25 *40:14 7.18901
10 *81:B *40:25 5.6525
11 *40:14 *40:16 1.05257
12 *40:16 *40:17 0.53204
13 *40:17 *40:10 6.5693
14 *40:7 *40:10 0.302729
15 *40:7 *40:8 0.302729
16 *40:11 *40:8 1.00747
17 *40:15 *40:11 7.18901
18 *77:B *40:15 5.6525
19 *40:11 *40:13 2.28558
20 *40:18 *40:13 8.71388
21 *40:18 *40:22 0.697192
22 *40:20 *40:22 5.43722
23 *79:B *40:20 5.6525
24 *40:26 *40:19 9.52931
25 *40:19 *40:9 7.50208
26 *89:B *40:9 3.33816
*END

*D_NET *8 0.00290904

*CONN
*I *90:Q O *C 57.58 36.04 *L 0 *D NOR2XL
*I *56:A I *C 45.64 24.92 *L 0.00231 *D CLKBUFX3

*CAP
1 *8:2 0.00015497
2 *8:4 0.0011296
3 *8:5 0.00014784
4 *8:6 0.00030727
5 *8:7 0.00116936

*RES
1 *8:3 *8:2 0.384128
2 *8:2 *8:6 0.384128
3 *90:Q *8:6 5.6525
4 *8:6 *8:7 5.6525
5 *8:7 *8:5 13.4061
6 *8:4 *8:5 5.76192
7 *56:A *8:4 11.305
*END

*D_NET *24 0.00678798

*CONN
*P *24 O *C 40.04 0 *L 0.25
*I *51:Q O *C 64.93 36.52 *L 0 *D CLKBUFX3

*CAP
1 *24 0.00013569
2 *24:2 0.00265299
3 *24:3 0.00016787
4 *24:4 0.00107543
5 *24:5 0.002756

*RES
1 *24:3 *24:2 0.803788
2 *24:4 *24:2 22.2055
3 *24:4 *24:6 4.99367
4 *51:Q *24:6 5.6525
5 *24:5 *24:3 24.4748
6 *24 *24:5 5.6525
*END

*D_NET *41 0.00808151

*CONN
*I *90:B I *C 57.96 36.12 *L 0.00142 *D NOR2XL
*I *87:B I *C 40.04 26.04 *L 0.00142 *D NOR2XL
*I *78:B I *C 37.8 26.04 *L 0.00142 *D NOR2XL
*I *76:B I *C 54.6 15.96 *L 0.00142 *D NOR2XL
*I *73:Q O *C 27.3 29.82 *L 0 *D NAND2XL

*CAP
1 *73:Q 0.00018969
2 *41:5 4.015e-05
3 *41:7 0.00133918
4 *41:9 0.00217218
5 *41:10 8.927e-05
6 *41:11 0.00070478
7 *41:12 0.00027066
8 *41:14 0.00028242
9 *41:15 0.00028753
10 *41:16 0.0008938
11 *41:17 0.00017268
12 *41:18 0.00163917

*RES
1 *41:8 *41:12 11.305
2 *41:5 *41:12 0.096032
3 *41:6 *41:5 0.096032
4 *41:18 *41:12 13.2995
5 *41:17 *41:18 5.6525
6 *41:16 *41:17 3.4352
7 *41:14 *41:16 0.697192
8 *78:B *41:14 5.6525
9 *41:16 *41:10 6.0011
10 *41:10 *87:B 0.63906
11 *41:18 *41:7 1.53651
12 *41:15 *41:7 9.18354
13 *41:15 *41:11 8.02833
14 *41:11 *41:13 3.07302
15 *90:B *41:13 5.6525
16 *41:15 *41:9 16.024
17 *76:B *41:9 5.6525
18 *73:Q *41:8 1.14279
*END

*D_NET *9 0.00476229

*CONN
*I *70:A I *C 14.28 35 *L 0.00148 *D NAND2XL
*I *69:A I *C 24.36 24.92 *L 0.00148 *D NAND2XL
*I *66:Q O *C 36.26 23.94 *L 0 *D CLKINVX1

*CAP
1 *9:3 0.00091911
2 *9:5 0.00038186
3 *9:6 0.00061151
4 *9:7 0.00012844
5 *9:8 0.00019637
6 *9:9 0.00115511
7 *9:10 0.00136989

*RES
1 *9:7 *9:8 0.768256
2 *66:Q *9:8 5.6525
3 *9:7 *9:10 5.6525
4 *9:10 *9:5 13.7192
5 *9:5 *9:6 1.46545
6 *69:A *9:6 5.6525
7 *9:9 *9:6 7.95727
8 *9:9 *9:3 12.6379
9 *9:3 *9:4 4.60954
10 *70:A *9:4 5.6525
*END

*D_NET *25 0.00597249

*CONN
*P *25 O *C 41.16 0 *L 0.25
*I *58:Q O *C 36.93 36.52 *L 0 *D CLKBUFX3

*CAP
1 *25:2 0.00048256
2 *25:3 0.00478303
3 *25:4 0.00013049
4 *25:6 0.00016081
5 *25:7 0.0004156

*RES
1 *25 *25:4 0.455192
2 *25:2 *25:4 5.6525
3 *25:6 *25:2 1.84958
4 *25:6 *25:7 5.6525
5 *25:7 *25:3 8.02833
6 *25:3 *25:5 21.8953
7 *58:Q *25:5 5.6525
*END

*D_NET *42 0.0111598

*CONN
*I *88:B I *C 63.56 15.96 *L 0.00142 *D NOR2XL
*I *86:B I *C 31.08 26.04 *L 0.00142 *D NOR2XL
*I *85:B I *C 53.48 26.04 *L 0.00142 *D NOR2XL
*I *75:B I *C 18.76 15.96 *L 0.00142 *D NOR2XL
*I *74:Q O *C 27.58 29.82 *L 0 *D NAND2XL

*CAP
1 *75:B 0.00031266
2 *74:Q 0.00037777
3 *42:5 8.126e-05
4 *42:6 0.00121925
5 *42:8 0.0002691
6 *42:9 0.00028631
7 *42:10 0.00064033
8 *42:11 0.00070911
9 *42:12 6.001e-05
10 *42:14 0.00111389
11 *42:15 0.00068676
12 *42:18 0.00050563
13 *42:19 0.00130781
14 *42:20 0.00014355
15 *42:22 0.00112366
16 *42:23 0.00051067
17 *42:24 0.00181203

*RES
1 *42:15 *42:17 3.52822
2 *42:12 *42:17 0.455192
3 *42:12 *42:8 6.77849
4 *42:5 *42:8 0.53204
5 *42:5 *42:6 10.3829
6 *42:20 *42:6 0.503733
7 *42:20 *42:21 0.605457
8 *42:19 *42:21 9.33031
9 *74:Q *42:19 2.6991
10 *42:24 *42:19 9.10965
11 *86:B *42:24 5.6525
12 *42:24 *42:16 10.9592
13 *42:11 *42:16 3.29305
14 *42:11 *42:13 0.605457
15 *42:10 *42:13 4.92277
16 *42:9 *42:10 0.53204
17 *42:23 *42:9 6.75018
18 *42:23 *42:7 7.11795
19 *75:B *42:7 2.78932
20 *42:14 *42:15 5.30673
21 *42:22 *42:14 12.6379
22 *42:22 *42:18 7.18901
23 *88:B *42:18 5.6525
24 *85:B *42:15 5.6525
*END

*D_NET *10 0.00325165

*CONN
*I *77:Q O *C 42.66 25.96 *L 0 *D NOR2XL
*I *57:A I *C 32.2 35 *L 0.00231 *D CLKBUFX3

*CAP
1 *10:2 0.00016373
2 *10:3 0.00260474
3 *10:4 0.00018689
4 *10:6 0.00029629

*RES
1 *10:4 *10:6 0.24511
2 *10:6 *10:2 6.76935
3 *10:3 *10:2 11.763
4 *10:3 *10:5 6.21711
5 *57:A *10:5 11.305
6 *77:Q *10:4 5.6525
*END

*D_NET *26 0.00239368

*CONN
*P *26 O *C 42.28 0 *L 0.25
*I *55:Q O *C 40.29 16.36 *L 0 *D CLKBUFX3

*CAP
1 *55:Q 0.00012492
2 *26:3 0.00214785
3 *26:4 0.00012091

*RES
1 *55:Q *26:2 1.14279
2 *26:2 *26:4 5.6525
3 *26:4 *26:3 15.5688
4 *26:3 *26 0.455192
*END

*D_NET *43 0.00579748

*CONN
*I *91:Q O *C 56.06 36.34 *L 0 *D INVXL
*I *72:B I *C 24.36 35.56 *L 0.00154 *D NAND2XL
*I *70:B I *C 15.4 35.56 *L 0.00154 *D NAND2XL

*CAP
1 *70:B 0.00022467
2 *43:3 0.00128305
3 *43:5 0.00042408
4 *43:6 0.00012825
5 *43:7 0.00059687
6 *43:8 0.00058667
7 *43:9 0.00086874
8 *43:10 0.00010769
9 *43:11 0.00125278
10 *43:12 0.00032468

*RES
1 *43:10 *43:11 0.756616
2 *43:11 *43:13 8.82331
3 *43:12 *43:13 0.81604
4 *43:12 *43:3 1.11685
5 *43:6 *43:3 16.0595
6 *43:5 *43:6 1.50098
7 *91:Q *43:5 5.6525
8 *43:9 *43:10 1.53651
9 *43:9 *43:8 7.57314
10 *72:B *43:8 5.6525
11 *43:9 *43:7 10.6462
12 *43:7 *43:4 7.50208
13 *70:B *43:4 1.69163
*END

*D_NET *11 0.00268431

*CONN
*I *83:Q O *C 20.82 36.04 *L 0 *D NOR2XL
*I *58:A I *C 36.12 35 *L 0.00231 *D CLKBUFX3

*CAP
1 *11:2 0.00016061
2 *11:4 0.00023641
3 *11:5 0.0004445
4 *11:6 0.00184279

*RES
1 *11:3 *11:2 0.384128
2 *11:2 *11:4 0.384128
3 *83:Q *11:4 5.6525
4 *11:6 *11:4 15.6754
5 *11:6 *11:5 6.80488
6 *58:A *11:5 11.305
*END

*D_NET *27 0.00329679

*CONN
*P *27 O *C 43.4 0 *L 0.25
*I *64:Q O *C 48.69 16.36 *L 0 *D CLKBUFX3

*CAP
1 *27:2 0.00065404
2 *27:3 0.00191869
3 *27:4 0.00011686
4 *27:5 0.0006072

*RES
1 *27 *27:4 0.455192
2 *27:4 *27:2 7.50208
3 *27:5 *27:2 9.18072
4 *27:5 *27:3 13.7192
5 *64:Q *27:3 5.6525
*END

*D_NET *44 0.0064894

*CONN
*I *87:A I *C 40.86 25.77 *L 0.0012 *D NOR2XL
*I *86:A I *C 31.9 25.77 *L 0.0012 *D NOR2XL
*I *83:A I *C 21.26 35.85 *L 0.0012 *D NOR2XL
*I *77:A I *C 43.1 25.77 *L 0.0012 *D NOR2XL
*I *69:Q O *C 25.62 25.06 *L 0 *D NAND2XL

*CAP
1 *44:5 7.892e-05
2 *44:6 4.242e-05
3 *44:7 0.00022705
4 *44:8 0.00031947
5 *44:9 0.00015269
6 *44:10 0.000155
7 *44:11 0.0002824
8 *44:12 9.033e-05
9 *44:13 0.00040926
10 *44:14 0.00044305
11 *44:15 0.00020101
12 *44:16 0.00049151
13 *44:17 0.00090655
14 *44:18 0.00061817
15 *44:19 0.00109927
16 *44:20 0.0009723

*RES
1 *44:16 *44:19 5.6525
2 *44:17 *44:19 3.84128
3 *44:20 *44:17 10.5751
4 *44:18 *44:20 5.6525
5 *44:18 *44:13 9.18072
6 *44:13 *44:5 6.34969
7 *83:A *44:5 0.63906
8 *44:17 *44:15 6.80488
9 *44:14 *44:15 1.46545
10 *69:Q *44:14 5.6525
11 *44:19 *44:11 5.69086
12 *44:9 *44:11 5.6525
13 *44:6 *44:9 0.348596
14 *44:6 *44:7 0.803788
15 *87:A *44:7 5.6525
16 *44:11 *44:10 7.26008
17 *44:8 *44:10 1.15238
18 *77:A *44:8 5.6525
19 *44:16 *44:12 6.80488
20 *86:A *44:12 0.63906
*END

*D_NET *12 0.00620547

*CONN
*I *86:Q O *C 31.46 25.96 *L 0 *D NOR2XL
*I *59:A I *C 65.8 14.84 *L 0.00231 *D CLKBUFX3

*CAP
1 *86:Q 0.00015501
2 *12:2 0.00286136
3 *12:4 0.00048937
4 *12:5 0.00168464
5 *12:7 0.00101509

*RES
1 *86:Q *12:3 1.14279
2 *12:5 *12:3 13.264
3 *12:5 *12:7 5.6525
4 *12:7 *12:2 5.79745
5 *12:4 *12:2 22.5897
6 *12:4 *12:6 1.53651
7 *59:A *12:6 11.305
*END

*D_NET *28 0.00397992

*CONN
*P *28 O *C 44.52 0 *L 0.25
*I *56:Q O *C 46.45 26.44 *L 0 *D CLKBUFX3

*CAP
1 *28:2 0.0007973
2 *28:3 0.00281076
3 *28:4 0.00013224
4 *28:5 0.00023962

*RES
1 *56:Q *28:3 5.6525
2 *28:5 *28:3 19.097
3 *28:5 *28:2 6.80488
4 *28:4 *28:2 9.10965
5 *28 *28:4 0.455192
*END

*D_NET *45 0.00933338

*CONN
*I *88:A I *C 62.74 15.69 *L 0.0012 *D NOR2XL
*I *84:A I *C 29.1 35.85 *L 0.0012 *D NOR2XL
*I *81:A I *C 34.14 25.77 *L 0.0012 *D NOR2XL
*I *78:A I *C 38.62 25.77 *L 0.0012 *D NOR2XL
*I *70:Q O *C 15.54 35.14 *L 0 *D NAND2XL

*CAP
1 *45:5 7.111e-05
2 *45:6 0.0021886
3 *45:7 0.00010046
4 *45:8 0.00142196
5 *45:10 0.00038866
6 *45:11 0.00034427
7 *45:12 0.00031142
8 *45:13 0.00033162
9 *45:14 0.00179501
10 *45:15 0.00024605
11 *45:17 0.00056564
12 *45:18 0.00023731
13 *45:19 0.00133127

*RES
1 *45:5 *88:A 0.63906
2 *45:8 *45:5 11.7275
3 *45:8 *45:9 5.6525
4 *45:9 *45:6 14.2483
5 *45:18 *45:6 1.57204
6 *45:17 *45:18 3.07302
7 *45:15 *45:17 1.53651
8 *45:19 *45:15 14.0323
9 *45:16 *45:19 5.6525
10 *45:14 *45:16 1.9917
11 *45:14 *45:11 6.42076
12 *84:A *45:11 5.6525
13 *45:14 *45:10 14.8716
14 *45:10 *45:7 6.73382
15 *70:Q *45:7 0.63906
16 *45:17 *45:12 6.42076
17 *81:A *45:12 5.6525
18 *45:18 *45:13 6.42076
19 *78:A *45:13 5.6525
*END

*D_NET *13 0.00467464

*CONN
*I *87:Q O *C 40.42 25.96 *L 0 *D NOR2XL
*I *60:A I *C 14.28 14.84 *L 0.00231 *D CLKBUFX3

*CAP
1 *13:2 0.00030435
2 *13:3 0.00021816
3 *13:4 0.00015532
4 *13:5 0.00095092
5 *13:6 0.00304589

*RES
1 *13:5 *13:3 4.15435
2 *87:Q *13:3 5.6525
3 *13:5 *13:6 5.6525
4 *13:6 *13:4 23.7776
5 *13:2 *13:4 1.53651
6 *60:A *13:2 11.305
*END

*D_NET *29 0.00379091

*CONN
*P *29 O *C 45.64 0 *L 0.25
*I *61:Q O *C 57.65 16.36 *L 0 *D CLKBUFX3

*CAP
1 *29:2 0.00083013
2 *29:3 0.00152548
3 *29:4 0.00013134
4 *29:5 0.00130396

*RES
1 *29 *29:4 0.455192
2 *29:4 *29:2 8.27033
3 *29:5 *29:2 13.7903
4 *29:5 *29:3 12.9509
5 *61:Q *29:3 5.6525
*END

*D_NET *46 0.00996747

*CONN
*I *89:A I *C 15.7 25.77 *L 0.0012 *D NOR2XL
*I *80:A I *C 61.62 25.77 *L 0.0012 *D NOR2XL
*I *76:A I *C 53.78 15.69 *L 0.0012 *D NOR2XL
*I *75:A I *C 17.94 15.69 *L 0.0012 *D NOR2XL
*I *71:Q O *C 36.82 14.98 *L 0 *D NAND2XL

*CAP
1 *46:5 7.895e-05
2 *46:6 0.00137627
3 *46:7 6.189e-05
4 *46:8 8.161e-05
5 *46:9 0.00015047
6 *46:10 0.00043577
7 *46:11 0.00016728
8 *46:12 0.00174004
9 *46:13 0.00109693
10 *46:14 0.00011917
11 *46:15 0.00088627
12 *46:16 0.00124198
13 *46:18 0.00022924
14 *46:19 0.0023016

*RES
1 *46:5 *76:A 0.63906
2 *46:10 *46:5 6.73382
3 *46:10 *46:15 5.6525
4 *46:15 *46:6 8.03116
5 *46:16 *46:6 9.14519
6 *46:16 *46:17 1.53651
7 *71:Q *46:17 5.6525
8 *46:17 *46:19 5.6525
9 *46:19 *46:13 18.7129
10 *46:13 *46:14 5.30673
11 *46:14 *46:18 5.6525
12 *46:18 *46:9 6.80488
13 *46:9 *46:11 1.18792
14 *89:A *46:11 5.6525
15 *46:13 *46:7 5.96556
16 *46:7 *75:A 0.63906
17 *46:15 *46:12 11.1014
18 *46:12 *46:8 13.6481
19 *46:8 *80:A 0.63906
*END

*D_NET *14 0.00395132

*CONN
*I *78:Q O *C 38.18 25.96 *L 0 *D NOR2XL
*I *61:A I *C 56.84 14.84 *L 0.00231 *D CLKBUFX3

*CAP
1 *14:2 0.00180998
2 *14:3 0.00156121
3 *14:4 0.00022307
4 *14:5 0.00019779
5 *14:6 0.00015927

*RES
1 *14:4 *14:6 0.768256
2 *14:6 *14:2 16.4436
3 *14:3 *14:2 7.60867
4 *14:3 *14:5 4.9226
5 *78:Q *14:5 5.6525
6 *61:A *14:4 11.305
*END

*D_NET *30 0.00390098

*CONN
*P *30 O *C 46.76 0 *L 0.25
*I *53:Q O *C 33.01 16.36 *L 0 *D CLKBUFX3

*CAP
1 *30 0.00013483
2 *30:2 0.00063287
3 *30:3 8.306e-05
4 *30:5 0.00114777
5 *30:6 0.00094471
6 *30:7 0.00095774

*RES
1 *30 *30:6 5.6525
2 *30:6 *30:4 11.0303
3 *30:4 *30:2 3.87681
4 *30:7 *30:2 5.0292
5 *30:5 *30:7 5.6525
6 *30:5 *30:3 10.191
7 *53:Q *30:3 0.63906
*END

*D_NET *47 0.0117527

*CONN
*I *90:A I *C 57.14 35.85 *L 0.0012 *D NOR2XL
*I *85:A I *C 52.66 25.77 *L 0.0012 *D NOR2XL
*I *82:A I *C 26.9 15.69 *L 0.0012 *D NOR2XL
*I *79:A I *C 44.82 15.69 *L 0.0012 *D NOR2XL
*I *72:Q O *C 24.5 35.14 *L 0 *D NAND2XL

*CAP
1 *47:5 0.00016061
2 *47:7 0.0001655
3 *47:9 0.0001655
4 *47:11 0.00021293
5 *47:12 8.575e-05
6 *47:13 0.00026362
7 *47:14 0.00013735
8 *47:15 0.00117439
9 *47:16 0.00024687
10 *47:17 0.00061882
11 *47:18 0.00281592
12 *47:19 0.00090151
13 *47:20 0.00015961
14 *47:21 0.0011708
15 *47:23 0.0001394
16 *47:24 0.00054348
17 *47:25 0.00039045
18 *47:26 0.00085997
19 *47:27 0.00052352
20 *47:28 0.00030047
21 *47:29 0.00071622

*RES
1 *47:10 *47:9 0.370533
2 *47:9 *47:24 0.370533
3 *47:24 *47:28 5.6525
4 *47:28 *47:23 6.38522
5 *47:16 *47:23 5.6525
6 *82:A *47:16 5.6525
7 *47:5 *47:16 0.384128
8 *47:6 *47:5 0.384128
9 *47:7 *47:23 0.370533
10 *47:8 *47:7 0.370533
11 *47:24 *47:18 6.73382
12 *47:18 *47:20 5.69086
13 *47:20 *47:27 5.6525
14 *47:27 *47:15 8.79659
15 *47:15 *47:11 10.5751
16 *47:11 *72:Q 1.69163
17 *47:18 *47:13 15.6754
18 *47:26 *47:13 1.88511
19 *47:17 *47:26 5.6525
20 *47:17 *47:12 7.50208
21 *47:12 *79:A 0.63906
22 *47:26 *47:19 16.3697
23 *47:19 *47:21 4.99367
24 *47:14 *47:21 11.305
25 *47:14 *85:A 1.14279
26 *47:21 *47:22 6.21711
27 *47:29 *47:22 15.2173
28 *47:29 *47:25 6.42076
29 *90:A *47:25 5.6525
*END

*D_NET *15 0.00436673

*CONN
*I *81:Q O *C 33.7 25.96 *L 0 *D NOR2XL
*I *62:A I *C 64.68 24.92 *L 0.00231 *D CLKBUFX3

*CAP
1 *15:2 0.00241623
2 *15:3 0.00120911
3 *15:4 0.00055944
4 *15:5 0.00018195

*RES
1 *15:4 *15:6 1.92064
2 *62:A *15:6 11.305
3 *15:4 *15:2 21.8214
4 *15:3 *15:2 10.2976
5 *15:3 *15:5 0.697192
6 *81:Q *15:5 5.6525
*END

*D_NET *31 0.00534008

*CONN
*P *31 O *C 47.88 0 *L 0.25
*I *62:Q O *C 65.49 26.44 *L 0 *D CLKBUFX3

*CAP
1 *31:2 0.00118524
2 *31:4 0.00015573
3 *31:5 0.00197565
4 *31:6 0.00202346

*RES
1 *62:Q *31:3 5.6525
2 *31:2 *31:3 5.76192
3 *31:5 *31:2 17.6315
4 *31:5 *31:6 5.6525
5 *31:6 *31:4 16.7212
6 *31 *31:4 0.41966
*END

*D_NET *48 0.00192977

*CONN
*I *92:Q O *C 26.26 36.34 *L 0 *D INVXL
*I *73:A I *C 26.04 29.96 *L 0.00148 *D NAND2XL
*I *67:B I *C 24.36 29.96 *L 0.00238 *D OR2X3

*CAP
1 *48:3 0.00016061
2 *48:5 0.00013407
3 *48:6 0.00065662
4 *48:7 5.016e-05
5 *48:9 0.00029636
6 *48:10 0.00024504
7 *48:11 0.00038691

*RES
1 *48:4 *48:3 0.384128
2 *48:3 *48:10 0.384128
3 *73:A *48:10 5.6525
4 *48:10 *48:11 5.6525
5 *48:11 *48:8 6.45629
6 *48:6 *48:8 0.163391
7 *67:B *48:6 11.305
8 *48:6 *48:7 2.67726
9 *48:7 *48:9 0.187283
10 *48:9 *48:5 6.40912
11 *48:5 *92:Q 1.14279
*END

*D_NET *16 0.00354727

*CONN
*I *84:Q O *C 28.66 36.04 *L 0 *D NOR2XL
*I *63:A I *C 23.24 14.84 *L 0.00231 *D CLKBUFX3

*CAP
1 *16:2 0.00219323
2 *16:3 0.00014006
3 *16:4 0.0004639
4 *16:5 0.00075008

*RES
1 *84:Q *16:4 5.6525
2 *16:5 *16:4 6.34969
3 *16:5 *16:3 9.94897
4 *16:2 *16:3 11.908
5 *63:A *16:2 11.305
*END

*D_NET *32 0.00559638

*CONN
*P *32 O *C 49 0 *L 0.25
*I *54:Q O *C 61.01 36.52 *L 0 *D CLKBUFX3

*CAP
1 *32:2 0.0013344
2 *32:4 0.0001361
3 *32:5 0.00128002
4 *32:6 0.00284586

*RES
1 *32:2 *32:3 6.14605
2 *54:Q *32:3 5.6525
3 *32:5 *32:2 13.7903
4 *32:5 *32:6 5.6525
5 *32:6 *32:4 23.2513
6 *32 *32:4 0.455192
*END

