*SPEF "IEEE 1481-1998"
*DESIGN "sar5"
*DATE "Wed Jul  5 17:28:21 2017"
*VENDOR "Cadence Design Systems, Inc."
*PROGRAM "Innovus"
*VERSION "15.28-s017_1"
*DESIGN_FLOW "PIN_CAP NONE" "NAME_SCOPE LOCAL"
*DIVIDER /
*DELIMITER :
*BUS_DELIMITER []
*T_UNIT 1 NS
*C_UNIT 1 PF
*R_UNIT 1 OHM
*L_UNIT 1 HENRY

// MMMC spef file for corner 'ams_rc_corner_maxCaR'

*NAME_MAP

*1 clk
*2 comp
*3 resetn
*4 out[4]
*5 out[3]
*6 out[2]
*7 out[1]
*8 out[0]
*9 counter[2]
*10 counter[1]
*11 counter[0]
*12 dac_out[4]
*13 dac_out[3]
*14 dac_out[2]
*15 dac_out[1]
*16 dac_out[0]
*17 UNCONNECTED
*18 n_0
*19 n_1
*20 n_2
*21 n_3
*22 n_4
*23 n_5
*24 n_6
*25 n_7
*26 n_8
*27 n_9
*28 n_10
*29 n_12
*30 n_13
*31 n_15
*32 n_16
*33 n_18
*34 n_20
*35 n_21
*36 n_22
*37 n_23
*38 n_24
*39 n_26
*40 n_27
*41 n_28
*42 n_29
*43 n_30
*44 n_31
*45 n_32
*46 n_33
*47 n_34
*48 n_39
*49 counter_reg\[2\]
*50 counter_reg\[0\]
*51 counter_reg\[1\]
*52 dac_out_reg\[2\]
*53 dac_out_reg\[4\]
*54 dac_out_reg\[3\]
*55 g593
*56 g594
*57 dac_out_reg\[0\]
*58 g597
*59 g599
*60 g600
*61 dac_out_reg\[1\]
*62 g598
*63 g606
*64 g605
*65 g609
*66 g596
*67 g604
*68 g602
*69 g603
*70 g610
*71 g611
*72 g613
*73 g612
*74 g607
*75 g608
*76 g614
*77 g615
*78 g617
*79 g616
*80 g619
*81 g620
*82 g618
*83 g624
*84 g2


*PORTS

*1 I *C 0 65.8
*2 I *C 70.84 130.64
*3 I *C 70.84 130.64
*4 O *C 0 68.6
*5 O *C 66.92 130.64
*6 O *C 68.6 0
*7 O *C 64.12 0
*8 O *C 0 58.52


*D_NET *1 0.0152344

*CONN
*P *1 I *C 0 65.8 *L 0
*I *61:CP I *C 50.68 52.92 *L 0.00195 *D DFCX1
*I *57:CP I *C 50.68 63 *L 0.00195 *D DFCX1
*I *54:CP I *C 73.08 78.12 *L 0.00195 *D DFCX1
*I *53:CP I *C 50.68 73.08 *L 0.00195 *D DFCX1
*I *52:CP I *C 73.08 52.92 *L 0.00195 *D DFCX1
*I *51:CP I *C 73.08 57.96 *L 0.00195 *D DFCX1
*I *50:CP I *C 73.08 68.6 *L 0.00199 *D DFPX3
*I *49:CP I *C 51.24 78.68 *L 0.00199 *D DFPX3

*CAP
1 *1 0.00327181
2 *1:9 0.00011888
3 *1:11 7.342e-05
4 *1:12 7.342e-05
5 *1:13 4.31e-05
6 *1:14 0.00065585
7 *1:15 0.00132598
8 *1:16 0.00061457
9 *1:17 0.00011287
10 *1:18 0.00095462
11 *1:19 0.00141287
12 *1:20 0.0010112
13 *1:22 0.00010317
14 *1:23 0.00028091
15 *1:24 0.00086596
16 *1:25 6.15e-05
17 *1:26 0.00184998
18 *1:27 0.00059149
19 *1:29 0.00181277

*RES
1 *1 *1:15 22.7836
2 *1:24 *1:15 16.7077
3 *1:24 *1:13 0.293721
4 *1:23 *1:13 1.55586
5 *1:11 *1:23 5.6525
6 *1:11 *57:CP 0.63906
7 *1:20 *1:23 6.13441
8 *1:20 *1:28 0.313064
9 *1:26 *1:28 0.756616
10 *61:CP *1:26 5.6525
11 *1:9 *1:26 0.288096
12 *1:10 *1:9 0.288096
13 *1:26 *1:14 17.644
14 *1:18 *1:14 9.09717
15 *52:CP *1:18 5.6525
16 *1:18 *1:21 3.45715
17 *51:CP *1:21 11.305
18 *1:24 *1:27 4.9226
19 *1:12 *1:27 5.6525
20 *1:12 *53:CP 0.63906
21 *1:27 *1:29 3.77022
22 *1:17 *1:29 5.6525
23 *1:17 *49:CP 1.14279
24 *1:29 *1:16 18.0282
25 *1:25 *1:16 9.09717
26 *1:22 *1:25 0.313064
27 *1:19 *1:22 6.45911
28 *50:CP *1:19 5.6525
29 *54:CP *1:22 5.6525
*END

*D_NET *19 0.00224966

*CONN
*I *69:B I *C 53.48 57.96 *L 0.00395 *D NAND2X3
*I *57:QN O *C 62.81 62.7 *L 0 *D DFCX1

*CAP
1 *19:2 0.00043924
2 *19:3 0.00013912
3 *19:4 0.00064965
4 *19:5 0.00102165

*RES
1 *57:QN *19:4 5.6525
2 *19:5 *19:4 7.57314
3 *19:5 *19:3 12.2537
4 *19:2 *19:3 1.46545
5 *69:B *19:2 5.6525
*END

*D_NET *35 0.00142879

*CONN
*I *66:Q O *C 55.02 57.26 *L 0 *D OAI21X3
*I *57:D I *C 52.92 63 *L 0.00193 *D DFCX1

*CAP
1 *35:3 0.00084637
2 *35:4 0.00010205
3 *35:5 0.00048037

*RES
1 *57:D *35:5 5.6525
2 *35:5 *35:2 1.84958
3 *35:3 *35:2 3.9007
4 *35:4 *35:3 0.455192
5 *66:Q *35:4 5.6525
*END

*D_NET *2 0.0086211

*CONN
*P *2 I *C 70.84 130.64 *L 0
*I *83:A I *C 68.6 66.92 *L 0.00134 *D INVXL
*I *59:A3 I *C 73.08 72.52 *L 0.00323 *D AO32X3

*CAP
1 *59:A3 0.00011448
2 *2:3 0.00010501
3 *2:5 0.00348653
4 *2:7 0.00098758
5 *2:9 0.00295814
6 *2:10 0.00016263
7 *2:11 0.00080673

*RES
1 *2 *2:5 22.0188
2 *2:9 *2:5 17.4996
3 *2:9 *2:11 11.305
4 *2:11 *2:8 7.11795
5 *2:7 *2:8 3.91234
6 *83:A *2:7 5.6525
7 *2:11 *2:12 1.95617
8 *2:10 *2:12 5.6525
9 *2:3 *2:10 0.254485
10 *2:4 *2:3 0.254485
11 *2:10 *2:6 11.3323
12 *59:A3 *2:6 0.388135
*END

*D_NET *20 0.00218317

*CONN
*I *68:B I *C 69.16 52.92 *L 0.00395 *D NAND2X3
*I *52:QN O *C 85.21 52.62 *L 0 *D DFCX1

*CAP
1 *20:2 0.00028049
2 *20:3 0.00025762
3 *20:4 0.00030922
4 *20:5 0.00133584

*RES
1 *20:5 *20:4 6.42076
2 *52:QN *20:4 5.6525
3 *20:5 *20:2 16.8633
4 *20:2 *20:3 0.697192
5 *68:B *20:3 5.6525
*END

*D_NET *36 0.00212075

*CONN
*I *72:Q O *C 81.26 74.42 *L 0 *D INVXL
*I *65:A I *C 71.1 73.93 *L 0.0012 *D NOR2XL
*I *59:B1 I *C 75.32 73.08 *L 0.0028 *D AO32X3

*CAP
1 *36:3 0.00015851
2 *36:5 3.963e-05
3 *36:7 0.0005313
4 *36:8 0.0002619
5 *36:9 0.00026961
6 *36:10 0.00015785
7 *36:11 0.00070195

*RES
1 *36:7 *72:Q 4.98468
2 *36:9 *36:7 6.38522
3 *59:B1 *36:9 11.305
4 *36:5 *36:9 0.0960321
5 *36:6 *36:5 0.0960321
6 *36:9 *36:10 0.40802
7 *36:10 *36:11 5.6525
8 *36:11 *36:8 8.3414
9 *36:3 *36:8 0.384128
10 *36:4 *36:3 0.384128
11 *65:A *36:8 5.6525
*END

*D_NET *3 0.0147412

*CONN
*P *3 I *C 70.84 130.64 *L 0
*I *61:RN I *C 59.78 53.62 *L 0.00457 *D DFCX1
*I *57:RN I *C 59.78 63.7 *L 0.00457 *D DFCX1
*I *54:RN I *C 82.18 77.42 *L 0.00457 *D DFCX1
*I *53:RN I *C 59.78 73.78 *L 0.00457 *D DFCX1
*I *52:RN I *C 82.18 53.62 *L 0.00457 *D DFCX1
*I *51:RN I *C 82.18 57.26 *L 0.00457 *D DFCX1
*I *50:SN I *C 81.01 67.49 *L 0.00406 *D DFPX3
*I *49:SN I *C 59.17 77.57 *L 0.00406 *D DFPX3

*CAP
1 *3:9 0.00048713
2 *3:10 0.00026214
3 *3:11 0.00232171
4 *3:12 0.00010313
5 *3:13 0.00036676
6 *3:14 0.00078961
7 *3:15 0.00065004
8 *3:16 0.00023641
9 *3:17 0.00173212
10 *3:18 0.00058992
11 *3:19 0.00069484
12 *3:20 0.0010611
13 *3:22 0.00052724
14 *3:24 0.00024723
15 *3:28 0.00021529
16 *3:29 0.0005744
17 *3:31 0.00038584
18 *3:32 0.00106495
19 *3:33 0.00243132

*RES
1 *3 *3:11 22.0188
2 *3:33 *3:11 19.7333
3 *3:32 *3:33 5.6525
4 *3:28 *3:32 1.08132
5 *3:28 *3:30 0.431912
6 *3:30 *3:12 0.684708
7 *3:31 *3:12 2.37668
8 *3:29 *3:31 0.372488
9 *3:29 *3:15 9.10965
10 *3:15 *3:19 3.00196
11 *3:19 *3:23 2.74832
12 *49:SN *3:23 11.305
13 *3:19 *3:26 0.384128
14 *53:RN *3:26 11.305
15 *3:15 *3:9 2.59849
16 *3:13 *3:9 1.23115
17 *3:13 *3:21 0.313064
18 *57:RN *3:21 11.305
19 *3:17 *3:21 6.97373
20 *61:RN *3:17 11.305
21 *3:32 *3:20 13.022
22 *3:16 *3:20 1.15238
23 *50:SN *3:16 11.305
24 *3:16 *3:10 1.44611
25 *3:14 *3:10 2.76766
26 *3:14 *3:25 0.697192
27 *3:22 *3:25 2.74832
28 *51:RN *3:22 11.305
29 *3:18 *3:22 2.6889
30 *52:RN *3:18 11.305
31 *3:20 *3:24 5.69086
32 *3:24 *3:27 0.82768
33 *54:RN *3:27 11.305
*END

*D_NET *21 0.00280779

*CONN
*I *81:A I *C 71.66 63.85 *L 0.0012 *D NOR2XL
*I *76:A I *C 82.74 62.58 *L 0.00457 *D HAX3
*I *50:QN O *C 85.02 66.38 *L 0 *D DFPX3

*CAP
1 *21:3 0.00015851
2 *21:5 0.00029531
3 *21:6 0.00013672
4 *21:7 0.00028294
5 *21:8 0.00010391
6 *21:9 0.00023039
7 *21:11 0.00032556
8 *21:12 0.00127445

*RES
1 *21:4 *21:3 0.384128
2 *21:3 *21:7 0.384128
3 *81:A *21:7 5.6525
4 *21:12 *21:7 12.5313
5 *21:8 *21:12 5.6525
6 *21:8 *21:10 0.41966
7 *21:9 *21:10 0.83932
8 *76:A *21:9 5.6525
9 *21:12 *21:11 8.02833
10 *21:11 *21:5 1.17173
11 *21:6 *21:5 1.83023
12 *50:QN *21:6 5.6525
*END

*D_NET *37 0.00139962

*CONN
*I *76:SUM O *C 77.73 64.68 *L 0 *D HAX3
*I *64:A1 I *C 71.39 57.76 *L 0.00359 *D OAI21X3
*I *56:B I *C 73.64 64.12 *L 0.00142 *D NOR2XL

*CAP
1 *56:B 0.00043584
2 *37:4 0.00045678
3 *37:5 0.00018172
4 *37:6 0.00032528

*RES
1 *56:B *37:3 5.6525
2 *37:4 *37:3 1.98006
3 *37:5 *37:4 0.756616
4 *37:6 *37:5 1.53651
5 *64:A1 *37:6 11.305
6 *56:B *76:SUM 3.84189
*END

*D_NET *4 0.00567026

*CONN
*P *4 O *C 0 68.6 *L 0.25
*I *73:Q O *C 58.45 68.46 *L 0 *D NAND2X3

*CAP
1 *4 0.00325588
2 *4:2 0.00015851
3 *4:4 0.00202808
4 *4:5 0.00022779

*RES
1 *4 *4:4 22.7836
2 *4:5 *4:4 22.0855
3 *73:Q *4:5 5.6525
4 *4:2 *4:5 0.384128
5 *4:3 *4:2 0.384128
*END

*D_NET *22 0.00086762

*CONN
*I *84:A2 I *C 64.12 77.56 *L 0.00267 *D OAI21X2
*I *80:A I *C 65.54 73.93 *L 0.0012 *D NOR2XL
*I *49:QN O *C 63.18 76.46 *L 0 *D DFPX3

*CAP
1 *84:A2 4.883e-05
2 *49:QN 3.173e-05
3 *22:3 0.00011879
4 *22:5 0.00066827

*RES
1 *84:A2 *22:4 0.63906
2 *49:QN *22:4 0.593951
3 *84:A2 *22:5 5.6525
4 *22:5 *22:3 8.30587
5 *22:3 *80:A 1.14279
*END

*D_NET *38 0.00113706

*CONN
*I *64:Q O *C 70.7 57.26 *L 0 *D OAI21X3
*I *58:B1 I *C 71.53 53.57 *L 0.00402 *D OAI21X3

*CAP
1 *38:3 0.00057544
2 *38:5 0.00056162

*RES
1 *64:Q *38:4 5.6525
2 *38:5 *38:4 1.59594
3 *38:5 *38:2 0.697192
4 *38:3 *38:2 1.14074
5 *58:B1 *38:3 5.6525
*END

*D_NET *5 0.00478054

*CONN
*P *5 O *C 66.92 130.64 *L 0.25
*I *63:Q O *C 67.13 78.62 *L 0 *D AO21X3

*CAP
1 *5:2 0.0031451
2 *5:3 0.00163544

*RES
1 *5 *5:2 22.0188
2 *5:3 *5:2 12.8901
3 *63:Q *5:3 5.6525
*END

*D_NET *23 0.00064988

*CONN
*I *80:Q O *C 65.98 74.12 *L 0 *D NOR2XL
*I *67:A2 I *C 65.24 68.04 *L 0.00251 *D OAI31X2

*CAP
1 *23:2 0.00015968
2 *23:3 0.0004902

*RES
1 *67:A2 *23:3 5.6525
2 *23:3 *23:2 2.30477
3 *80:Q *23:2 5.6525
*END

*D_NET *39 0.00707556

*CONN
*I *83:Q O *C 68.26 66.7 *L 0 *D INVXL
*I *70:A2 I *C 65.8 57.96 *L 0.00381 *D OAI22X3
*I *66:A2 I *C 54.6 57.96 *L 0.00372 *D OAI21X3
*I *62:A2 I *C 52.92 68.04 *L 0.00372 *D OAI21X3
*I *58:A2 I *C 69.72 52.92 *L 0.00372 *D OAI21X3

*CAP
1 *39:5 0.00015851
2 *39:7 0.00015851
3 *39:9 0.00023225
4 *39:10 0.00029998
5 *39:11 0.00016885
6 *39:12 9.973e-05
7 *39:13 0.00030393
8 *39:14 0.00031799
9 *39:15 0.00071911
10 *39:16 0.00037128
11 *39:17 8.64e-05
12 *39:18 0.00022926
13 *39:19 0.00036822
14 *39:20 0.00054465
15 *39:22 0.00030754
16 *39:23 0.00119101
17 *39:24 0.000104
18 *39:25 0.00024893
19 *39:27 0.00116541

*RES
1 *39:8 *39:7 0.384128
2 *39:7 *39:22 0.384128
3 *70:A2 *39:22 5.6525
4 *39:22 *39:26 5.6525
5 *39:23 *39:26 6.91431
6 *39:23 *39:24 0.431912
7 *39:24 *39:20 6.42076
8 *39:18 *39:20 0.348596
9 *66:A2 *39:18 5.6525
10 *39:20 *39:21 2.29313
11 *39:15 *39:21 1.46545
12 *39:15 *39:10 2.38354
13 *39:10 *39:9 7.48273
14 *39:9 *62:A2 0.63906
15 *39:26 *39:27 5.6525
16 *39:27 *39:25 8.27033
17 *39:25 *39:11 1.62006
18 *39:16 *39:11 6.72134
19 *39:12 *39:16 0.803788
20 *58:A2 *39:12 5.6525
21 *39:27 *39:13 5.01301
22 *39:19 *39:13 7.48273
23 *39:19 *39:17 1.53651
24 *39:14 *39:17 5.6525
25 *39:5 *39:14 0.384128
26 *39:6 *39:5 0.384128
27 *83:Q *39:14 5.6525
*END

*D_NET *6 0.00512252

*CONN
*P *6 O *C 68.6 0 *L 0.25
*I *68:Q O *C 68.53 52.5 *L 0 *D NAND2X3

*CAP
1 *6 0.00262788
2 *6:2 0.00019849
3 *6:3 0.00037181
4 *6:4 0.00079346
5 *6:5 0.00088449
6 *6:7 0.00024639

*RES
1 *6:5 *6:2 6.76902
2 *68:Q *6:2 5.6525
3 *6:5 *6:4 6.70852
4 *6:7 *6:4 1.4542
5 *6:7 *6:3 1.57412
6 *6:6 *6:3 0.313064
7 *6 *6:6 18.8462
*END

*D_NET *24 0.00250083

*CONN
*I *79:Q O *C 65.38 63.7 *L 0 *D OAI21X3
*I *66:B1 I *C 56.41 57.31 *L 0.00402 *D OAI21X3

*CAP
1 *66:B1 0.00021896
2 *24:2 0.00015851
3 *24:5 0.00105275
4 *24:6 0.00021936
5 *24:7 0.00085125

*RES
1 *24:3 *24:2 0.384128
2 *24:2 *24:6 0.384128
3 *79:Q *24:6 5.6525
4 *24:6 *24:7 5.6525
5 *24:7 *24:5 10.3331
6 *24:5 *24:4 9.80684
7 *66:B1 *24:4 1.69163
*END

*D_NET *40 0.00100404

*CONN
*I *62:Q O *C 53.34 67.34 *L 0 *D OAI21X3
*I *53:D I *C 52.92 73.08 *L 0.00193 *D DFCX1

*CAP
1 *40:3 0.0004697
2 *40:5 0.00053434

*RES
1 *40:5 *40:2 0.313064
2 *40:3 *40:2 1.52487
3 *62:Q *40:3 5.6525
4 *40:5 *40:4 2.36419
5 *53:D *40:4 5.6525
*END

*D_NET *7 0.00505794

*CONN
*P *7 O *C 64.12 0 *L 0.25
*I *71:Q O *C 64.19 52.5 *L 0 *D NAND2X3

*CAP
1 *7 0.00264036
2 *7:2 0.00166103
3 *7:3 0.00018257
4 *7:4 0.00048505
5 *7:5 8.893e-05

*RES
1 *7 *7:5 19.1709
2 *7:5 *7:4 0.372488
3 *7:4 *7:2 2.64419
4 *7:3 *7:2 13.4775
5 *71:Q *7:3 5.6525
*END

*D_NET *25 0.00303546

*CONN
*I *82:Q O *C 69.54 64.04 *L 0 *D NOR2XL
*I *77:A I *C 68.04 57.96 *L 0.00148 *D NAND2XL
*I *70:B1 I *C 63.42 58.38 *L 0.00372 *D OAI22X3

*CAP
1 *70:B1 0.00018142
2 *25:3 0.00015851
3 *25:5 0.00028827
4 *25:6 0.00029797
5 *25:7 0.00041105
6 *25:9 0.00012276
7 *25:10 0.00011348
8 *25:11 0.00052332
9 *25:12 0.00016605
10 *25:13 0.00018556
11 *25:14 0.00057287
12 *25:15 1.42e-05

*RES
1 *25:4 *25:3 0.384128
2 *25:3 *25:6 0.384128
3 *82:Q *25:6 5.6525
4 *25:12 *25:6 6.86431
5 *25:14 *25:12 2.30477
6 *25:11 *25:14 5.6525
7 *25:11 *25:8 7.11795
8 *25:5 *25:8 1.1711
9 *70:B1 *25:5 1.05257
10 *25:15 *25:12 0.156532
11 *25:15 *25:10 0.156532
12 *25:9 *25:10 5.6525
13 *25:13 *25:9 0.924788
14 *25:13 *25:7 1.37998
15 *77:A *25:7 5.6525
*END

*D_NET *41 0.00207366

*CONN
*I *65:Q O *C 70.66 74.12 *L 0 *D NOR2XL
*I *60:A I *C 69.72 74.2 *L 0.00134 *D INVXL
*I *56:A I *C 72.82 63.85 *L 0.0012 *D NOR2XL

*CAP
1 *41:3 0.0001731
2 *41:5 0.00017773
3 *41:6 0.00096443
4 *41:7 0.00043161
5 *41:8 0.00032679

*RES
1 *41:4 *41:3 0.737273
2 *41:8 *41:3 1.24279
3 *56:A *41:8 5.6525
4 *41:6 *41:4 0.697192
5 *41:6 *41:5 3.44551
6 *65:Q *41:5 5.6525
7 *41:7 *65:Q 1.05257
8 *41:7 *60:A 1.67483
*END

*D_NET *8 0.00505714

*CONN
*P *8 O *C 0 58.52 *L 0.25
*I *69:Q O *C 52.85 58.38 *L 0 *D NAND2X3

*CAP
1 *8 0.00315286
2 *8:2 0.00015851
3 *8:4 0.00144598
4 *8:5 0.00029979

*RES
1 *8:5 *8:4 18.2442
2 *8 *8:4 22.7836
3 *69:Q *8:5 5.6525
4 *8:2 *8:5 0.384128
5 *8:3 *8:2 0.384128
*END

*D_NET *26 0.00553641

*CONN
*I *78:C I *C 66.36 63 *L 0.00416 *D NAND3X3
*I *76:B I *C 82.26 63.14 *L 0.00491 *D HAX3
*I *74:B I *C 59.64 57.4 *L 0.00154 *D NAND2XL
*I *51:QN O *C 85.21 58.26 *L 0 *D DFCX1

*CAP
1 *26:4 0.00129385
2 *26:5 0.00089099
3 *26:7 0.00066823
4 *26:8 0.00034852
5 *26:9 0.00055589
6 *26:10 0.00015452
7 *26:11 0.00040298
8 *26:12 0.00018474
9 *26:13 0.00103669

*RES
1 *74:B *26:5 5.6525
2 *26:5 *26:6 2.6889
3 *26:13 *26:6 10.6048
4 *26:12 *26:13 0.372488
5 *26:12 *26:4 0.78074
6 *26:11 *26:4 8.7514
7 *26:11 *26:7 7.11795
8 *76:B *26:7 5.6525
9 *26:11 *26:10 8.79659
10 *26:8 *26:10 1.92064
11 *51:QN *26:8 5.6525
12 *26:13 *26:9 6.73382
13 *78:C *26:9 5.6525
*END

*D_NET *42 0.0062031

*CONN
*I *84:A1 I *C 65.23 78.25 *L 0.00245 *D OAI21X2
*I *76:CO O *C 79.38 63.14 *L 0 *D HAX3
*I *72:A I *C 80.92 74.2 *L 0.00134 *D INVXL
*I *63:A1 I *C 68.6 78.12 *L 0.00208 *D AO21X3
*I *59:A1 I *C 74.91 72.66 *L 0.00301 *D AO32X3

*CAP
1 *42:5 0.00069506
2 *42:6 5.637e-05
3 *42:7 0.00046579
4 *42:8 0.00043967
5 *42:9 0.00075366
6 *42:10 0.00025292
7 *42:11 0.00025573
8 *42:13 0.00031525
9 *42:14 0.00029824
10 *42:15 0.00021525
11 *42:16 0.00071301
12 *42:17 0.00015848
13 *42:18 0.00119712
14 *42:19 0.00038655

*RES
1 *84:A1 *42:8 11.305
2 *42:8 *42:6 1.62006
3 *42:12 *42:6 0.30058
4 *42:11 *42:12 0.372488
5 *63:A1 *42:11 5.6525
6 *42:10 *42:11 0.768256
7 *42:18 *42:10 16.3342
8 *42:18 *42:16 7.50208
9 *42:15 *42:16 0.81604
10 *42:14 *42:15 1.15238
11 *42:13 *42:14 1.08132
12 *42:19 *42:13 8.79659
13 *42:17 *42:19 5.6525
14 *42:17 *42:5 3.75087
15 *42:7 *42:5 1.55586
16 *76:CO *42:7 5.6525
17 *59:A1 *42:14 5.6525
18 *42:9 *42:16 5.6525
19 *42:9 *72:A 4.93958
*END

*D_NET *9 0.00836386

*CONN
*I *82:A I *C 69.98 63.85 *L 0.0012 *D NOR2XL
*I *81:B I *C 70.84 64.12 *L 0.00142 *D NOR2XL
*I *79:A1 I *C 64.69 63.2 *L 0.00359 *D OAI21X3
*I *78:A I *C 68.04 63 *L 0.0036 *D NAND3X3
*I *65:B I *C 70.28 74.2 *L 0.00142 *D NOR2XL
*I *64:A2 I *C 70.28 57.96 *L 0.00372 *D OAI21X3
*I *63:A2 I *C 69.53 77.42 *L 0.00208 *D AO21X3
*I *59:A2 I *C 73.64 73.08 *L 0.003 *D AO32X3
*I *49:Q O *C 61.88 77.56 *L 0 *D DFPX3

*CAP
1 *82:A 5.682e-05
2 *9:9 0.00015851
3 *9:11 0.00015851
4 *9:13 3.963e-05
5 *9:15 0.00015851
6 *9:17 2.734e-05
7 *9:19 8.778e-05
8 *9:20 0.0001384
9 *9:21 0.0001501
10 *9:22 0.00094508
11 *9:23 0.00126627
12 *9:24 0.00027556
13 *9:25 0.00087147
14 *9:26 0.00022356
15 *9:27 0.00083334
16 *9:28 0.00016931
17 *9:29 0.0001598
18 *9:30 0.00029266
19 *9:31 0.00023167
20 *9:32 0.00015799
21 *9:33 2.055e-05
22 *9:34 0.00070582
23 *9:37 9.863e-05
24 *9:38 0.00028458
25 *9:39 0.00085197

*RES
1 *9:18 *9:17 0.0662621
2 *9:17 *9:37 0.0662621
3 *59:A2 *9:37 11.305
4 *9:39 *9:37 11.4063
5 *9:39 *9:32 8.3414
6 *9:30 *9:32 0.756616
7 *9:30 *9:36 0.313064
8 *9:36 *9:23 4.65732
9 *9:33 *9:23 0.156532
10 *9:33 *9:19 0.215956
11 *9:31 *9:19 1.08132
12 *9:29 *9:31 0.313064
13 *9:27 *9:29 3.42162
14 *64:A2 *9:27 5.6525
15 *9:29 *9:26 7.26008
16 *9:24 *9:26 5.6525
17 *9:11 *9:24 0.384128
18 *9:12 *9:11 0.384128
19 *78:A *9:24 5.6525
20 *9:26 *9:25 8.72552
21 *9:21 *9:25 0.384128
22 *9:13 *9:21 0.0960321
23 *9:14 *9:13 0.0960321
24 *79:A1 *9:21 11.305
25 *82:A *9:31 5.6525
26 *82:A *81:B 0.63906
27 *9:32 *9:34 0.768256
28 *65:B *9:34 5.6525
29 *9:34 *9:35 2.3403
30 *9:38 *9:35 6.42076
31 *9:28 *9:38 5.6525
32 *63:A2 *9:28 5.6525
33 *9:15 *9:28 0.384128
34 *9:16 *9:15 0.384128
35 *9:38 *9:20 0.684708
36 *9:22 *9:20 9.96146
37 *49:Q *9:22 5.6525
38 *9:9 *9:22 0.384128
39 *9:10 *9:9 0.384128
*END

*D_NET *27 0.00476503

*CONN
*I *81:Q O *C 71.22 64.04 *L 0 *D NOR2XL
*I *75:A I *C 68.6 57.96 *L 0.00148 *D NAND2XL
*I *74:A I *C 60.76 57.96 *L 0.00148 *D NAND2XL
*I *67:A1 I *C 64.68 68.6 *L 0.00252 *D OAI31X2

*CAP
1 *27:4 0.00038894
2 *27:5 4.424e-05
3 *27:6 3.201e-05
4 *27:7 0.00024518
5 *27:8 0.00110818
6 *27:9 0.00050922
7 *27:10 0.00017219
8 *27:11 0.00050596
9 *27:12 0.00076361
10 *27:13 0.00034406
11 *27:14 0.00016295
12 *27:15 0.00018159
13 *27:16 0.0003069

*RES
1 *75:A *27:9 5.6525
2 *27:16 *27:9 6.80488
3 *27:16 *27:6 0.30058
4 *27:14 *27:6 0.840164
5 *27:12 *27:14 0.372488
6 *27:12 *27:8 9.87791
7 *27:7 *27:8 0.768256
8 *74:A *27:7 5.6525
9 *27:8 *27:5 4.24475
10 *27:10 *27:5 0.293721
11 *27:10 *27:11 0.756616
12 *27:11 *27:4 7.5615
13 *27:4 *67:A1 2.78932
14 *27:16 *27:13 7.64421
15 *27:13 *27:15 1.08132
16 *81:Q *27:15 5.6525
*END

*D_NET *43 0.00174674

*CONN
*I *59:Q O *C 72.66 74.9 *L 0 *D AO32X3
*I *54:D I *C 75.32 78.12 *L 0.00193 *D DFCX1

*CAP
1 *43:2 0.00015851
2 *43:4 0.00025576
3 *43:5 0.00090255
4 *43:6 0.00042992

*RES
1 *43:3 *43:2 0.384128
2 *43:2 *43:4 0.384128
3 *59:Q *43:4 5.6525
4 *43:6 *43:4 7.60867
5 *43:6 *43:5 7.92174
6 *54:D *43:5 5.6525
*END

*D_NET *10 0.00479435

*CONN
*I *79:A2 I *C 65.8 63 *L 0.00372 *D OAI21X3
*I *77:B I *C 66.92 57.4 *L 0.00154 *D NAND2XL
*I *75:B I *C 69.72 57.4 *L 0.00154 *D NAND2XL
*I *67:A3 I *C 65.66 68.46 *L 0.00278 *D OAI31X2
*I *51:Q O *C 83.02 56.14 *L 0 *D DFCX1

*CAP
1 *10:5 0.00015851
2 *10:7 0.00056359
3 *10:8 0.00018811
4 *10:10 0.00045957
5 *10:11 0.00036511
6 *10:12 0.00035099
7 *10:14 0.000759
8 *10:15 0.00032257
9 *10:17 0.00106779
10 *10:18 0.00018858
11 *10:19 4.897e-05
12 *10:20 0.00032156

*RES
1 *10:17 *10:18 0.431912
2 *10:18 *10:11 6.80488
3 *10:11 *10:13 0.756616
4 *75:B *10:13 5.6525
5 *10:13 *10:8 1.06884
6 *10:14 *10:8 0.810452
7 *77:B *10:14 5.6525
8 *10:14 *10:16 2.29313
9 *10:10 *10:16 0.697192
10 *10:10 *10:12 1.52487
11 *79:A2 *10:12 5.6525
12 *10:12 *10:7 1.62692
13 *10:9 *10:7 2.28543
14 *67:A3 *10:9 5.6525
15 *10:17 *10:19 6.84324
16 *10:19 *10:20 0.372488
17 *10:20 *10:15 6.79324
18 *51:Q *10:15 11.305
19 *10:5 *10:15 0.384128
20 *10:6 *10:5 0.384128
*END

*D_NET *28 0.00308204

*CONN
*I *78:Q O *C 67.03 62.6 *L 0 *D NAND3X3
*I *73:A I *C 58.66 67.34 *L 0.00363 *D NAND2X3
*I *62:A1 I *C 54.03 67.84 *L 0.00359 *D OAI21X3

*CAP
1 *62:A1 0.00019952
2 *28:3 0.00068035
3 *28:4 0.00031283
4 *28:5 0.00019112
5 *28:6 0.00024854
6 *28:8 0.00054753
7 *28:10 0.00046927
8 *28:11 0.00043288

*RES
1 *28:4 *28:8 5.6525
2 *28:3 *28:8 3.49269
3 *28:3 *28:9 3.49268
4 *28:5 *28:9 5.6525
5 *28:6 *28:5 0.768256
6 *78:Q *28:6 5.6525
7 *28:11 *28:4 1.50098
8 *73:A *28:11 5.6525
9 *28:11 *28:12 1.5604
10 *28:10 *28:12 1.14074
11 *28:10 *28:7 6.34969
12 *62:A1 *28:7 1.69163
*END

*D_NET *44 0.00137118

*CONN
*I *58:Q O *C 70.14 53.62 *L 0 *D OAI21X3
*I *52:D I *C 75.32 52.92 *L 0.00193 *D DFCX1

*CAP
1 *44:2 3.963e-05
2 *44:4 0.00012631
3 *44:5 0.00020929
4 *44:6 0.0004119
5 *44:7 0.00058405

*RES
1 *58:Q *44:4 5.6525
2 *44:2 *44:4 0.0960321
3 *44:3 *44:2 0.0960321
4 *44:4 *44:5 0.455192
5 *44:7 *44:5 9.18072
6 *44:7 *44:6 6.38522
7 *52:D *44:6 5.6525
*END

*D_NET *11 0.00448466

*CONN
*I *82:B I *C 69.16 64.12 *L 0.00142 *D NOR2XL
*I *80:B I *C 66.36 74.2 *L 0.00142 *D NOR2XL
*I *78:B I *C 67.34 63.7 *L 0.00379 *D NAND3X3
*I *55:B I *C 70.28 67.48 *L 0.00154 *D NAND2XL
*I *50:Q O *C 83.72 67.48 *L 0 *D DFPX3

*CAP
1 *11:5 0.00015851
2 *11:7 0.00016803
3 *11:8 5.729e-05
4 *11:9 4.302e-05
5 *11:10 0.00013979
6 *11:11 0.0003125
7 *11:12 0.00029577
8 *11:14 0.0001156
9 *11:15 0.00114152
10 *11:16 0.00036059
11 *11:18 0.0002799
12 *11:19 0.00141214

*RES
1 *82:B *11:12 5.6525
2 *11:12 *11:9 0.858664
3 *11:14 *11:9 0.293721
4 *11:14 *11:16 0.756616
5 *11:16 *11:17 1.21181
6 *11:19 *11:17 14.8716
7 *11:18 *11:19 5.6525
8 *11:5 *11:18 0.384128
9 *11:6 *11:5 0.384128
10 *50:Q *11:18 5.6525
11 *55:B *11:17 5.6525
12 *11:14 *11:10 0.684708
13 *11:15 *11:10 0.396612
14 *11:15 *11:13 10.6345
15 *11:7 *11:13 1.09768
16 *11:7 *80:B 0.577149
17 *11:15 *11:8 0.293721
18 *11:11 *11:8 1.24279
19 *78:B *11:11 5.6525
*END

*D_NET *29 0.00082214

*CONN
*I *71:B I *C 63.56 52.92 *L 0.00395 *D NAND2X3
*I *70:B2 I *C 63 57.96 *L 0.00408 *D OAI22X3
*I *61:QN O *C 62.81 52.62 *L 0 *D DFCX1

*CAP
1 *61:QN 6.273e-05
2 *29:3 0.00019241
3 *29:4 0.000567

*RES
1 *61:QN *71:B 0.548842
2 *61:QN *29:4 5.6525
3 *29:4 *29:3 2.6889
4 *70:B2 *29:3 5.6525
*END

*D_NET *45 0.00096236

*CONN
*I *56:Q O *C 73.26 64.04 *L 0 *D NOR2XL
*I *51:D I *C 75.32 57.96 *L 0.00193 *D DFCX1

*CAP
1 *56:Q 0.00028564
2 *45:3 0.00067672

*RES
1 *56:Q *45:2 2.24048
2 *45:3 *45:2 8.72552
3 *51:D *45:3 5.6525
*END

*D_NET *12 0.00158562

*CONN
*I *67:B1 I *C 63.56 67.48 *L 0.00277 *D OAI31X2
*I *53:Q O *C 60.62 74.9 *L 0 *D DFCX1

*CAP
1 *12:2 0.00052245
2 *12:4 0.00106317

*RES
1 *53:Q *12:4 5.6525
2 *12:4 *12:3 10.262
3 *12:2 *12:3 0.577149
4 *12:2 *67:B1 2.6991
*END

*D_NET *30 0.001569

*CONN
*I *77:Q O *C 66.78 57.82 *L 0 *D NAND2XL
*I *71:A I *C 63.98 53.62 *L 0.00363 *D NAND2X3
*I *70:A1 I *C 64.68 57.96 *L 0.00348 *D OAI22X3

*CAP
1 *30:4 0.00024754
2 *30:6 0.00021502
3 *30:7 0.00077118
4 *30:8 0.00033526

*RES
1 *30:8 *30:7 1.53651
2 *30:7 *30:4 2.2337
3 *30:4 *30:3 0.82768
4 *77:Q *30:3 5.6525
5 *30:7 *30:6 1.52487
6 *30:6 *30:5 0.443552
7 *70:A1 *30:5 11.305
8 *71:A *30:8 5.6525
*END

*D_NET *46 0.00103593

*CONN
*I *55:Q O *C 70.42 67.9 *L 0 *D NAND2XL
*I *50:D I *C 75.18 67.34 *L 0.00193 *D DFPX3

*CAP
1 *55:Q 0.00022367
2 *46:2 0.00011133
3 *46:3 0.00052258
4 *46:4 0.00017835

*RES
1 *55:Q *46:2 1.60142
2 *46:3 *46:2 6.06052
3 *46:3 *46:4 2.2337
4 *50:D *46:4 5.6525
*END

*D_NET *13 0.00359343

*CONN
*I *63:B1 I *C 68.04 78.12 *L 0.00246 *D AO21X3
*I *59:B2 I *C 76.44 73.64 *L 0.00296 *D AO32X3
*I *54:Q O *C 83.02 76.3 *L 0 *D DFCX1

*CAP
1 *13:3 0.00015851
2 *13:5 0.00024858
3 *13:6 0.00023283
4 *13:7 0.00079119
5 *13:9 0.00022932
6 *13:10 0.00029093
7 *13:11 0.00069493
8 *13:13 6.112e-05
9 *13:14 0.00027403
10 *13:15 0.00061199

*RES
1 *13:4 *13:3 0.384128
2 *13:3 *13:10 0.384128
3 *54:Q *13:10 5.6525
4 *13:15 *13:10 10.3331
5 *13:14 *13:15 1.14074
6 *13:13 *13:14 0.372488
7 *13:11 *13:13 3.38609
8 *13:11 *13:12 0.431912
9 *13:12 *13:9 1.15238
10 *13:6 *13:9 5.6525
11 *13:5 *13:6 0.54066
12 *13:5 *13:8 0.611724
13 *63:B1 *13:8 11.305
14 *13:15 *13:7 7.50208
15 *59:B2 *13:7 5.6525
*END

*D_NET *31 0.00232414

*CONN
*I *70:Q O *C 64.4 58.46 *L 0 *D OAI22X3
*I *61:D I *C 52.92 52.92 *L 0.00193 *D DFCX1

*CAP
1 *31:2 1.981e-05
2 *31:4 0.00049587
3 *31:5 0.00015839
4 *31:6 0.00012048
5 *31:7 0.00016257
6 *31:8 0.00136702

*RES
1 *61:D *31:4 5.6525
2 *31:4 *31:5 1.88511
3 *31:8 *31:5 14.1033
4 *31:8 *31:6 6.06052
5 *31:6 *31:7 0.41966
6 *70:Q *31:7 5.6525
7 *31:2 *31:7 0.048016
8 *31:3 *31:2 0.048016
*END

*D_NET *47 0.0020488

*CONN
*I *84:B1 I *C 65.66 77.42 *L 0.00287 *D OAI21X2
*I *60:Q O *C 69.38 74.42 *L 0 *D INVXL
*I *55:A I *C 69.16 68.04 *L 0.00148 *D NAND2XL

*CAP
1 *47:3 0.0003088
2 *47:4 0.00019985
3 *47:6 0.0009619
4 *47:8 0.00020605
5 *47:9 0.0003722

*RES
1 *47:7 *47:3 1.14074
2 *47:4 *47:3 5.6525
3 *60:Q *47:4 1.69163
4 *60:Q *47:5 5.6525
5 *47:6 *47:5 3.52822
6 *55:A *47:6 5.6525
7 *47:9 *47:7 1.08132
8 *47:9 *47:8 1.14074
9 *84:B1 *47:8 5.6525
*END

*D_NET *14 0.0022638

*CONN
*I *64:B1 I *C 72.09 57.31 *L 0.00402 *D OAI21X3
*I *52:Q O *C 83.02 54.74 *L 0 *D DFCX1

*CAP
1 *14:2 0.00015851
2 *14:4 0.00023676
3 *14:5 0.00060406
4 *14:6 0.00126447

*RES
1 *14:3 *14:2 0.384128
2 *14:2 *14:4 0.384128
3 *64:B1 *14:4 5.6525
4 *14:6 *14:4 13.2995
5 *14:6 *14:5 7.57314
6 *52:Q *14:5 5.6525
*END

*D_NET *32 0.00168195

*CONN
*I *74:Q O *C 59.5 57.82 *L 0 *D NAND2XL
*I *69:A I *C 53.06 57.26 *L 0.00363 *D NAND2X3
*I *66:A1 I *C 55.71 57.76 *L 0.00359 *D OAI21X3

*CAP
1 *69:A 0.00016675
2 *66:A1 0.00040605
3 *32:4 0.00064877
4 *32:5 0.00032094
5 *32:6 0.00013944

*RES
1 *69:A *32:3 1.14279
2 *32:4 *32:3 6.40912
3 *32:4 *32:5 1.84958
4 *32:5 *32:6 1.52487
5 *66:A1 *32:6 5.6525
6 *66:A1 *74:Q 3.33816
*END

*D_NET *48 0.00205252

*CONN
*I *84:Q O *C 64.75 77.08 *L 0 *D OAI21X2
*I *49:D I *C 53.34 77.42 *L 0.00193 *D DFPX3

*CAP
1 *48:2 3.963e-05
2 *48:4 0.00034464
3 *48:5 0.00016324
4 *48:6 0.00018532
5 *48:7 0.0001251
6 *48:8 0.00022589
7 *48:9 0.00071668
8 *48:10 0.00025202

*RES
1 *48:6 *48:7 0.313064
2 *48:10 *48:7 6.80488
3 *48:10 *48:11 0.431912
4 *48:9 *48:11 5.75028
5 *48:8 *48:9 0.372488
6 *48:8 *48:5 6.80488
7 *48:4 *48:5 1.53651
8 *49:D *48:4 5.6525
9 *84:Q *48:6 5.6525
10 *48:2 *48:6 0.0960321
11 *48:3 *48:2 0.0960321
*END

*D_NET *16 0.00077131

*CONN
*I *79:B1 I *C 63.99 63.65 *L 0.00402 *D OAI21X3
*I *57:Q O *C 60.62 64.82 *L 0 *D DFCX1

*CAP
1 *16:4 0.00062163
2 *16:5 0.00014968

*RES
1 *57:Q *16:5 11.305
2 *16:5 *16:3 0.384128
3 *16:4 *16:3 0.81604
4 *16:4 *16:2 1.11685
5 *79:B1 *16:2 5.6525
*END

*D_NET *33 0.00181459

*CONN
*I *75:Q O *C 69.86 57.82 *L 0 *D NAND2XL
*I *68:A I *C 68.74 53.62 *L 0.00363 *D NAND2X3
*I *58:A1 I *C 70.83 53.12 *L 0.00359 *D OAI21X3

*CAP
1 *33:3 0.00012492
2 *33:4 0.00100516
3 *33:6 0.00068451

*RES
1 *75:Q *33:5 5.6525
2 *33:4 *33:5 1.59594
3 *33:4 *33:7 1.46545
4 *33:6 *33:7 1.5843
5 *33:6 *33:8 0.348596
6 *58:A1 *33:8 5.6525
7 *33:4 *33:3 6.34969
8 *68:A *33:3 0.63906
*END

*D_NET *18 0.00142922

*CONN
*I *73:B I *C 59.08 68.04 *L 0.00395 *D NAND2X3
*I *53:QN O *C 62.81 72.78 *L 0 *D DFCX1

*CAP
1 *73:B 7.579e-05
2 *18:2 0.00019505
3 *18:3 0.00052054
4 *18:5 0.00063784

*RES
1 *18:3 *18:4 3.36647
2 *18:5 *18:4 8.3414
3 *53:QN *18:5 5.6525
4 *18:2 *18:3 1.08088
5 *73:B *18:2 0.503733
*END

*D_NET *34 0.00217201

*CONN
*I *67:Q O *C 64.31 68.94 *L 0 *D OAI31X2
*I *62:B1 I *C 54.73 67.39 *L 0.00402 *D OAI21X3

*CAP
1 *62:B1 0.00019482
2 *34:2 0.00015851
3 *34:4 0.00015851
4 *34:7 0.00019461
5 *34:8 0.00020547
6 *34:9 0.00052547
7 *34:10 0.00073462

*RES
1 *34:5 *34:4 0.384128
2 *34:4 *34:7 0.384128
3 *34:6 *34:7 5.6525
4 *62:B1 *34:6 1.69163
5 *34:10 *34:7 10.262
6 *34:9 *34:10 0.431912
7 *34:9 *34:8 7.53761
8 *34:2 *34:8 0.384128
9 *34:3 *34:2 0.384128
10 *67:Q *34:8 5.6525
*END

