*SPEF "IEEE 1481-1998"
*DESIGN "sar5"
*DATE "Wed Jul  5 17:28:37 2017"
*VENDOR "Cadence Design Systems, Inc."
*PROGRAM "Innovus"
*VERSION "15.28-s017_1"
*DESIGN_FLOW "PIN_CAP NONE" "NAME_SCOPE LOCAL"
*DIVIDER /
*DELIMITER :
*BUS_DELIMITER []
*T_UNIT 1 NS
*C_UNIT 1 PF
*R_UNIT 1 OHM
*L_UNIT 1 HENRY

// MMMC spef file for corner 'ams_rc_corner_maxCaR'

*NAME_MAP

*1 clk
*2 comp
*3 resetn
*4 out[4]
*5 out[3]
*6 out[2]
*7 out[1]
*8 out[0]
*9 counter[2]
*10 counter[1]
*11 counter[0]
*12 dac_out[4]
*13 dac_out[3]
*14 dac_out[2]
*15 dac_out[1]
*16 dac_out[0]
*17 UNCONNECTED
*18 n_0
*19 n_1
*20 n_2
*21 n_3
*22 n_4
*23 n_5
*24 n_6
*25 n_7
*26 n_8
*27 n_9
*28 n_10
*29 n_12
*30 n_13
*31 n_15
*32 n_16
*33 n_18
*34 n_20
*35 n_21
*36 n_22
*37 n_23
*38 n_24
*39 n_26
*40 n_27
*41 n_28
*42 n_29
*43 n_30
*44 n_31
*45 n_32
*46 n_33
*47 n_34
*48 n_39
*49 counter_reg\[2\]
*50 counter_reg\[0\]
*51 counter_reg\[1\]
*52 dac_out_reg\[2\]
*53 dac_out_reg\[4\]
*54 dac_out_reg\[3\]
*55 g593
*56 g594
*57 dac_out_reg\[0\]
*58 g597
*59 g599
*60 g600
*61 dac_out_reg\[1\]
*62 g598
*63 g606
*64 g605
*65 g609
*66 g596
*67 g604
*68 g602
*69 g603
*70 g610
*71 g611
*72 g613
*73 g612
*74 g607
*75 g608
*76 g614
*77 g615
*78 g617
*79 g616
*80 g619
*81 g620
*82 g618
*83 g624
*84 g2


*PORTS

*1 I *C 0 65.8
*2 I *C 70.84 130.64
*3 I *C 70.84 130.64
*4 O *C 0 68.6
*5 O *C 66.92 130.64
*6 O *C 68.6 0
*7 O *C 64.12 0
*8 O *C 0 58.52


*D_NET *1 0.0153095

*CONN
*P *1 I *C 0 65.8 *L 0
*I *61:CP I *C 50.68 52.92 *L 0.00195 *D DFCX1
*I *57:CP I *C 50.68 63 *L 0.00195 *D DFCX1
*I *54:CP I *C 73.08 78.12 *L 0.00195 *D DFCX1
*I *53:CP I *C 50.68 73.08 *L 0.00195 *D DFCX1
*I *52:CP I *C 73.08 52.92 *L 0.00195 *D DFCX1
*I *51:CP I *C 73.08 57.96 *L 0.00195 *D DFCX1
*I *50:CP I *C 73.08 68.6 *L 0.00199 *D DFPX3
*I *49:CP I *C 51.24 78.68 *L 0.00199 *D DFPX3

*CAP
1 *1 0.00468128
2 *57:CP 7.34163e-05
3 *53:CP 7.34163e-05
4 *50:CP 0.00148364
5 *49:CP 0.000112875
6 *1:9 6.15009e-05
7 *1:10 0.000326099
8 *1:11 0.000147485
9 *1:12 0.00086596
10 *1:13 0.00101249
11 *1:14 0.000103168
12 *1:15 0.00099115
13 *1:16 0.00240056
14 *1:17 0.000591493
15 *1:18 0.000328212
16 *1:19 0.00205674

*RES
1 *1:12 *1:18 1.84958
2 *1:15 *1:19 21.0887
3 *1:20 *1:13 0.313064
4 *50:CP *1:14 12.1116
5 *1:9 *1:14 0.313064
6 *1:16 *1:17 3.77022
7 *1:10 *1:20 0.756616
8 *49:CP *1:16 6.79529
9 *1:9 *1:16 27.1253
10 *1:10 *1:11 0.636692
11 *1:13 *1:18 6.13441
12 *51:CP *1:15 14.7622
13 *1 *1:12 39.2992
14 *1:12 *1:17 4.9226
15 *1:19 *1:10 5.6525
16 *1:14 *54:CP 5.6525
17 *1:15 *52:CP 5.6525
18 *1:10 *61:CP 5.6525
19 *1:17 *53:CP 5.6525
20 *1:18 *57:CP 5.6525
*END

*D_NET *2 0.00890631

*CONN
*P *2 I *C 70.84 130.64 *L 0
*I *83:A I *C 68.6 66.92 *L 0.00134 *D INVXL
*I *59:A3 I *C 73.08 72.52 *L 0.00323 *D AO32X3

*CAP
1 *2 0.00659038
2 *83:A 0.0010193
3 *59:A3 0.000113646
4 *2:3 0.000183109
5 *2:4 0.000192712
6 *2:5 0.000266085
7 *2:6 0.000541082

*RES
1 *83:A *2:5 9.56484
2 *59:A3 *2:7 0.388135
3 *2:3 *2:4 0.651646
4 *2:8 *2:6 1.95617
5 *2 *2:6 50.4393
6 *2:5 *2:6 7.11795
7 *2:8 *2:3 5.6525
8 *2:3 *2:7 11.305
*END

*D_NET *3 0.0147272

*CONN
*P *3 I *C 70.84 130.64 *L 0
*I *61:RN I *C 59.78 53.62 *L 0.00457 *D DFCX1
*I *57:RN I *C 59.78 63.7 *L 0.00457 *D DFCX1
*I *54:RN I *C 82.18 77.42 *L 0.00457 *D DFCX1
*I *53:RN I *C 59.78 73.78 *L 0.00457 *D DFCX1
*I *52:RN I *C 82.18 53.62 *L 0.00457 *D DFCX1
*I *51:RN I *C 82.18 57.26 *L 0.00457 *D DFCX1
*I *50:SN I *C 81.01 67.49 *L 0.00406 *D DFPX3
*I *49:SN I *C 59.17 77.57 *L 0.00406 *D DFPX3

*CAP
1 *3 0.00472662
2 *61:RN 0.00173212
3 *52:RN 0.000619975
4 *3:9 0.000194019
5 *3:10 0.00112177
6 *3:11 0.000983617
7 *3:12 0.000687422
8 *3:13 0.00117164
9 *3:14 0.000820526
10 *3:15 0.000527235
11 *3:16 0.000236413
12 *3:17 0.00113117
13 *3:18 0.000215743
14 *3:19 0.000478342
15 *3:20 8.06093e-05

*RES
1 *3:21 *3:19 3.00196
2 *3:9 *3:10 5.75028
3 *3:11 *3:16 4.21377
4 *3:19 *3:20 0.431912
5 *49:SN *3:12 14.0533
6 *3:12 *3:13 3.00196
7 *3:10 *3:16 1.15238
8 *61:RN *3:22 18.2787
9 *3:13 *3:14 3.82964
10 *53:RN *3:12 11.6891
11 *3:23 *3:11 0.697192
12 *3:14 *3:22 0.313064
13 *3:10 *3:17 13.022
14 *3:18 *3:21 0.431912
15 *3:23 *3:15 2.74832
16 *54:RN *3:9 12.0733
17 *3:17 *3:18 1.08132
18 *3:13 *3:20 9.10965
19 *3 *3:17 47.0205
20 *52:RN *3:15 13.9939
21 *3:15 *51:RN 11.305
22 *3:16 *50:SN 11.305
23 *3:22 *57:RN 11.305
*END

*D_NET *4 0.00572178

*CONN
*P *4 O *C 0 68.6 *L 0.25
*I *73:Q O *C 58.45 68.46 *L 0 *D NAND2X3

*CAP
1 *4 0.00535075
2 *4:2 0.000170416
3 *4:3 0.000200618

*RES
1 *4 *4:4 39.0245
2 *4:2 *4:3 0.636692
3 *4:4 *4:2 5.6525
4 *4:2 *73:Q 5.6525
*END

*D_NET *5 0.00487128

*CONN
*P *5 O *C 66.92 130.64 *L 0.25
*I *63:Q O *C 67.13 78.62 *L 0 *D AO21X3

*CAP
1 *5 0.00487128

*RES
1 *5 *63:Q 40.1773
*END

*D_NET *6 0.00517019

*CONN
*P *6 O *C 68.6 0 *L 0.25
*I *68:Q O *C 68.53 52.5 *L 0 *D NAND2X3

*CAP
1 *6 0.00272098
2 *68:Q 0.000198495
3 *6:2 0.00225071

*RES
1 *68:Q *6:2 22.1584
2 *6 *6:3 18.6541
3 *6:3 *6:2 0.313064
*END

*D_NET *7 0.00518653

*CONN
*P *7 O *C 64.12 0 *L 0.25
*I *71:Q O *C 64.19 52.5 *L 0 *D NAND2X3

*CAP
1 *7 0.00278614
2 *71:Q 0.000182567
3 *7:2 0.00214964
4 *7:3 6.81804e-05

*RES
1 *71:Q *7:2 21.7742
2 *7 *7:3 19.0382
3 *7:2 *7:3 0.313064
*END

*D_NET *8 0.00507053

*CONN
*P *8 O *C 0 58.52 *L 0.25
*I *69:Q O *C 52.85 58.38 *L 0 *D NAND2X3

*CAP
1 *8 0.004666
2 *8:2 0.000244012
3 *8:3 0.000160513

*RES
1 *8 *8:4 35.1833
2 *8:2 *8:3 0.636692
3 *8:4 *8:2 5.6525
4 *8:2 *69:Q 5.6525
*END

*D_NET *9 0.00853291

*CONN
*I *82:A I *C 69.98 63.85 *L 0.0012 *D NOR2XL
*I *81:B I *C 70.84 64.12 *L 0.00142 *D NOR2XL
*I *79:A1 I *C 64.69 63.2 *L 0.00359 *D OAI21X3
*I *78:A I *C 68.04 63 *L 0.0036 *D NAND3X3
*I *65:B I *C 70.28 74.2 *L 0.00142 *D NOR2XL
*I *64:A2 I *C 70.28 57.96 *L 0.00372 *D OAI21X3
*I *63:A2 I *C 69.53 77.42 *L 0.00208 *D AO21X3
*I *59:A2 I *C 73.64 73.08 *L 0.003 *D AO32X3
*I *49:Q O *C 61.88 77.56 *L 0 *D DFPX3

*CAP
1 *81:B 5.68165e-05
2 *9:9 0.000269996
3 *9:10 0.000128283
4 *9:11 0.000848332
5 *9:12 0.000287664
6 *9:13 0.00126627
7 *9:14 6.81804e-05
8 *9:15 0.000159797
9 *9:16 0.000866138
10 *9:17 0.00013916
11 *9:18 0.000171961
12 *9:19 0.000248251
13 *9:20 0.000176226
14 *9:21 0.00088887
15 *9:22 4.78752e-05
16 *9:23 0.000152092
17 *9:24 0.000232777
18 *9:25 0.000166576
19 *9:26 0.000324819
20 *9:27 0.00086434
21 *9:28 0.000153412
22 *9:29 0.000220936
23 *9:30 0.000794139

*RES
1 *9:14 *9:26 1.14074
2 *9:19 *9:20 0.864288
3 *9:31 *9:12 0.313064
4 *9:9 *9:32 0.433054
5 *9:31 *9:13 4.65732
6 *9:21 *9:29 8.72552
7 *9:15 *9:26 0.313064
8 *9:21 *9:22 0.313064
9 *9:11 *9:12 1.36834
10 *9:15 *9:16 0.252564
11 *9:10 *9:28 6.42076
12 *9:22 *9:23 0.323628
13 *64:A2 *9:16 8.82156
14 *9:10 *9:11 2.49683
15 *9:33 *9:29 1.60758
16 *9:13 *9:14 0.313064
17 *9:17 *9:18 0.636692
18 *9:28 *9:30 4.99367
19 *9:27 *9:34 2.6889
20 *9:24 *9:25 0.864288
21 *9:27 *9:11 5.6525
22 *9:33 *9:15 5.6525
23 *9:28 *9:17 5.6525
24 *9:29 *9:19 5.6525
25 *9:30 *9:24 5.6525
26 *9:34 *9:32 11.305
27 *9:11 *65:B 5.6525
28 *9:19 *78:A 5.6525
29 *9:24 *49:Q 5.6525
30 *9:26 *81:B 5.6525
31 *9:17 *63:A2 5.6525
32 *9:32 *59:A2 11.305
33 *9:22 *79:A1 11.305
34 *81:B *82:A 1e-06
*END

*D_NET *10 0.00497351

*CONN
*I *79:A2 I *C 65.8 63 *L 0.00372 *D OAI21X3
*I *77:B I *C 66.92 57.4 *L 0.00154 *D NAND2XL
*I *75:B I *C 69.72 57.4 *L 0.00154 *D NAND2XL
*I *67:A3 I *C 65.66 68.46 *L 0.00278 *D OAI31X2
*I *51:Q O *C 83.02 56.14 *L 0 *D DFCX1

*CAP
1 *10:5 0.00025645
2 *10:6 0.000286713
3 *10:7 0.00055275
4 *10:8 0.000468865
5 *10:9 0.000972814
6 *10:10 0.00101077
7 *10:11 0.000163316
8 *10:12 8.21414e-05
9 *10:13 0.00107259
10 *10:14 0.000107103

*RES
1 *10:11 *10:14 1.08132
2 *10:5 *10:6 0.96032
3 *10:15 *10:10 2.29313
4 *10:8 *10:9 1.52487
5 *10:11 *10:12 0.431912
6 *10:16 *10:10 1.87929
7 *10:12 *10:13 6.84324
8 *10:7 *10:16 0.756616
9 *10:15 *10:8 0.697192
10 *10:13 *10:17 0.431912
11 *67:A3 *10:9 9.56484
12 *10:7 *10:17 6.80488
13 *10:14 *10:5 5.6525
14 *10:16 *75:B 5.6525
15 *10:9 *79:A2 5.6525
16 *10:10 *77:B 5.6525
17 *10:5 *51:Q 11.305
*END

*D_NET *11 0.00443899

*CONN
*I *82:B I *C 69.16 64.12 *L 0.00142 *D NOR2XL
*I *80:B I *C 66.36 74.2 *L 0.00142 *D NOR2XL
*I *78:B I *C 67.34 63.7 *L 0.00379 *D NAND3X3
*I *55:B I *C 70.28 67.48 *L 0.00154 *D NAND2XL
*I *50:Q O *C 83.72 67.48 *L 0 *D DFPX3

*CAP
1 *82:B 0.000359736
2 *80:B 0.000168034
3 *78:B 0.00034308
4 *11:5 8.88277e-05
5 *11:6 0.000234971
6 *11:7 0.000166576
7 *11:8 0.000358119
8 *11:9 9.34453e-05
9 *11:10 0.00122575
10 *11:11 0.00140045

*RES
1 *11:8 *11:11 1.21181
2 *11:8 *11:9 0.697192
3 *80:B *11:5 1.09768
4 *11:11 *11:12 14.8716
5 *82:B *11:9 6.854
6 *78:B *11:10 7.18901
7 *11:6 *11:7 0.864288
8 *11:9 *11:10 1.08132
9 *11:5 *11:10 10.6345
10 *11:12 *11:6 5.6525
11 *11:11 *55:B 5.6525
12 *11:6 *50:Q 5.6525
*END

*D_NET *12 0.00158568

*CONN
*I *67:B1 I *C 63.56 67.48 *L 0.00277 *D OAI31X2
*I *53:Q O *C 60.62 74.9 *L 0 *D DFCX1

*CAP
1 *67:B1 0.000344941
2 *53:Q 0.000170013
3 *12:2 0.000893217
4 *12:3 0.000177512

*RES
1 *67:B1 *12:3 2.6991
2 *53:Q *12:2 15.9145
3 *12:2 *12:3 0.577149
*END

*D_NET *13 0.00355166

*CONN
*I *63:B1 I *C 68.04 78.12 *L 0.00246 *D AO21X3
*I *59:B2 I *C 76.44 73.64 *L 0.00296 *D AO32X3
*I *54:Q O *C 83.02 76.3 *L 0 *D DFCX1

*CAP
1 *59:B2 0.000595893
2 *13:3 0.00023329
3 *13:4 0.000165836
4 *13:5 0.000738286
5 *13:6 0.000214314
6 *13:7 0.000106646
7 *13:8 0.000694281
8 *13:9 0.000803115

*RES
1 *13:5 *13:10 6.80488
2 *63:B1 *13:5 12.4574
3 *13:6 *13:7 0.431912
4 *13:6 *13:9 1.08132
5 *13:3 *13:4 0.636692
6 *59:B2 *13:9 13.1546
7 *13:7 *13:8 3.38609
8 *13:8 *13:10 0.431912
9 *13:11 *13:9 4.6806
10 *13:11 *13:3 5.6525
11 *13:3 *54:Q 5.6525
*END

*D_NET *14 0.00228084

*CONN
*I *64:B1 I *C 72.09 57.31 *L 0.00402 *D OAI21X3
*I *52:Q O *C 83.02 54.74 *L 0 *D DFCX1

*CAP
1 *52:Q 0.000640522
2 *14:2 8.55953e-05
3 *14:3 0.000180349
4 *14:4 0.000196277
5 *14:5 0.0011781

*RES
1 *52:Q *14:2 7.57314
2 *14:3 *14:4 0.636692
3 *14:2 *14:5 13.2995
4 *14:5 *14:3 5.6525
5 *14:3 *64:B1 5.6525
*END

*D_NET *16 0.000770345

*CONN
*I *79:B1 I *C 63.99 63.65 *L 0.00402 *D OAI21X3
*I *57:Q O *C 60.62 64.82 *L 0 *D DFCX1

*CAP
1 *57:Q 0.000149685
2 *16:2 0.00062066

*RES
1 *57:Q *16:3 11.6891
2 *79:B1 *16:2 6.76935
3 *16:2 *16:3 0.81604
*END

*D_NET *18 0.0014271

*CONN
*I *73:B I *C 59.08 68.04 *L 0.00395 *D NAND2X3
*I *53:QN O *C 62.81 72.78 *L 0 *D DFCX1

*CAP
1 *73:B 7.57873e-05
2 *18:2 0.000637676
3 *18:3 0.000458183
4 *18:4 0.000255455

*RES
1 *73:B *18:4 0.503733
2 *53:QN *18:2 13.9939
3 *18:2 *18:3 3.29305
4 *18:3 *18:4 1.1543
*END

*D_NET *19 0.00227063

*CONN
*I *69:B I *C 53.48 57.96 *L 0.00395 *D NAND2X3
*I *57:QN O *C 62.81 62.7 *L 0 *D DFCX1

*CAP
1 *69:B 0.000447558
2 *19:2 0.000661
3 *19:3 0.00116207

*RES
1 *69:B *19:3 7.11795
2 *57:QN *19:2 7.57314
3 *19:2 *19:3 17.9062
*END

*D_NET *20 0.00217854

*CONN
*I *68:B I *C 69.16 52.92 *L 0.00395 *D NAND2X3
*I *52:QN O *C 85.21 52.62 *L 0 *D DFCX1

*CAP
1 *68:B 0.000257617
2 *20:2 0.000309466
3 *20:3 0.00161146

*RES
1 *68:B *20:3 6.34969
2 *52:QN *20:2 6.42076
3 *20:2 *20:3 22.5158
*END

*D_NET *21 0.0028043

*CONN
*I *81:A I *C 71.66 63.85 *L 0.0012 *D NOR2XL
*I *76:A I *C 82.74 62.58 *L 0.00457 *D HAX3
*I *50:QN O *C 85.02 66.38 *L 0 *D DFPX3

*CAP
1 *76:A 0.0002027
2 *50:QN 0.000136719
3 *21:3 0.000600049
4 *21:4 0.000173419
5 *21:5 0.000263167
6 *21:6 0.000151933
7 *21:7 0.00100714
8 *21:8 0.000269175

*RES
1 *76:A *21:4 6.42076
2 *21:5 *21:6 0.864288
3 *21:7 *21:8 6.87878
4 *50:QN *21:3 8.65446
5 *21:3 *21:8 8.02833
6 *21:7 *21:5 5.6525
7 *21:8 *21:4 5.6525
8 *21:5 *81:A 5.6525
*END

*D_NET *22 0.000917449

*CONN
*I *84:A2 I *C 64.12 77.56 *L 0.00267 *D OAI21X2
*I *80:A I *C 65.54 73.93 *L 0.0012 *D NOR2XL
*I *49:QN O *C 63.18 76.46 *L 0 *D DFPX3

*CAP
1 *84:A2 6.50609e-05
2 *80:A 0.000118792
3 *49:QN 6.4219e-05
4 *22:3 0.000669377

*RES
1 *80:A *22:3 1.14279
2 *49:QN *84:A2 0.503733
3 *22:3 *22:4 8.30587
4 *22:4 *84:A2 5.6525
*END

*D_NET *23 0.000649878

*CONN
*I *80:Q O *C 65.98 74.12 *L 0 *D NOR2XL
*I *67:A2 I *C 65.24 68.04 *L 0.00251 *D OAI31X2

*CAP
1 *80:Q 0.000159676
2 *67:A2 0.000490202

*RES
1 *80:Q *67:A2 13.6098
*END

*D_NET *24 0.00251225

*CONN
*I *79:Q O *C 65.38 63.7 *L 0 *D OAI21X3
*I *66:B1 I *C 56.41 57.31 *L 0.00402 *D OAI21X3

*CAP
1 *66:B1 0.000218959
2 *24:2 0.000893769
3 *24:3 0.000169649
4 *24:4 0.000222046
5 *24:5 0.00100783

*RES
1 *24:5 *24:6 10.3331
2 *66:B1 *24:2 1.69163
3 *24:3 *24:4 0.636692
4 *24:2 *24:5 9.80684
5 *24:6 *24:3 5.6525
6 *24:3 *79:Q 5.6525
*END

*D_NET *25 0.00299865

*CONN
*I *82:Q O *C 69.54 64.04 *L 0 *D NOR2XL
*I *77:A I *C 68.04 57.96 *L 0.00148 *D NAND2XL
*I *70:B1 I *C 63.42 58.38 *L 0.00372 *D OAI22X3

*CAP
1 *77:A 0.000594424
2 *70:B1 0.000215658
3 *25:3 0.000384882
4 *25:4 0.000198298
5 *25:5 0.000286682
6 *25:6 0.000176366
7 *25:7 0.000279119
8 *25:8 0.000716837
9 *25:9 0.00014638

*RES
1 *77:A *25:7 7.95727
2 *70:B1 *25:4 1.12599
3 *25:9 *25:10 1.15238
4 *25:3 *25:4 1.09768
5 *25:5 *25:6 0.864288
6 *25:7 *25:9 6.01468
7 *25:8 *25:9 7.95727
8 *25:3 *25:8 7.11795
9 *25:10 *25:5 5.6525
10 *25:5 *82:Q 5.6525
*END

*D_NET *26 0.00556336

*CONN
*I *78:C I *C 66.36 63 *L 0.00416 *D NAND3X3
*I *76:B I *C 82.26 63.14 *L 0.00491 *D HAX3
*I *74:B I *C 59.64 57.4 *L 0.00154 *D NAND2XL
*I *51:QN O *C 85.21 58.26 *L 0 *D DFCX1

*CAP
1 *78:C 0.000213043
2 *76:B 0.000198819
3 *74:B 0.000891874
4 *51:QN 0.000347024
5 *26:4 0.000154084
6 *26:5 0.00103748
7 *26:6 0.0015016
8 *26:7 0.000346709
9 *26:8 0.000872726

*RES
1 *76:B *26:8 12.7704
2 *26:4 *26:8 8.79659
3 *51:QN *26:4 7.57314
4 *26:6 *26:8 9.53214
5 *26:6 *26:7 0.372488
6 *78:C *26:7 12.3863
7 *26:5 *26:7 10.6048
8 *74:B *26:5 8.3414
*END

*D_NET *27 0.00478701

*CONN
*I *81:Q O *C 71.22 64.04 *L 0 *D NOR2XL
*I *75:A I *C 68.6 57.96 *L 0.00148 *D NAND2XL
*I *74:A I *C 60.76 57.96 *L 0.00148 *D NAND2XL
*I *67:A1 I *C 64.68 68.6 *L 0.00252 *D OAI31X2

*CAP
1 *81:Q 0.000181592
2 *75:A 0.000340128
3 *74:A 0.000245064
4 *67:A1 0.000387091
5 *27:4 0.000135454
6 *27:5 0.000344059
7 *27:6 0.000370514
8 *27:7 0.000109151
9 *27:8 0.00192059
10 *27:9 0.000160481
11 *27:10 0.000118976
12 *27:11 0.000473914

*RES
1 *74:A *27:8 6.42076
2 *27:7 *27:8 4.5979
3 *81:Q *27:5 6.73382
4 *27:5 *27:11 7.64421
5 *27:6 *27:7 0.697192
6 *27:9 *27:11 1.08132
7 *27:8 *27:10 9.87791
8 *27:4 *27:6 7.5615
9 *27:9 *27:10 0.431912
10 *67:A1 *27:4 2.78932
11 *75:A *27:11 12.4574
*END

*D_NET *28 0.00303645

*CONN
*I *78:Q O *C 67.03 62.6 *L 0 *D NAND3X3
*I *73:A I *C 58.66 67.34 *L 0.00363 *D NAND2X3
*I *62:A1 I *C 54.03 67.84 *L 0.00359 *D OAI21X3

*CAP
1 *78:Q 0.000248537
2 *62:A1 0.000199524
3 *28:3 0.000271951
4 *28:4 0.000191375
5 *28:5 0.00146978
6 *28:6 0.000178146
7 *28:7 0.000477139

*RES
1 *28:3 *28:6 6.40912
2 *28:8 *28:6 1.08132
3 *78:Q *28:4 6.42076
4 *28:5 *28:7 1.50098
5 *28:4 *28:5 18.2904
6 *62:A1 *28:3 1.69163
7 *28:8 *28:7 1.5604
8 *28:7 *73:A 5.6525
*END

*D_NET *29 0.000822334

*CONN
*I *71:B I *C 63.56 52.92 *L 0.00395 *D NAND2X3
*I *70:B2 I *C 63 57.96 *L 0.00408 *D OAI22X3
*I *61:QN O *C 62.81 52.62 *L 0 *D DFCX1

*CAP
1 *70:B2 0.000192412
2 *61:QN 0.000629922

*RES
1 *61:QN *71:B 0.548842
2 *70:B2 *61:QN 13.9939
*END

*D_NET *30 0.00152588

*CONN
*I *77:Q O *C 66.78 57.82 *L 0 *D NAND2XL
*I *71:A I *C 63.98 53.62 *L 0.00363 *D NAND2X3
*I *70:A1 I *C 64.68 57.96 *L 0.00348 *D OAI22X3

*CAP
1 *71:A 0.000335262
2 *30:3 0.000247541
3 *30:4 0.00014216
4 *30:5 0.000800922

*RES
1 *70:A1 *30:4 11.6891
2 *71:A *30:5 7.18901
3 *77:Q *30:3 6.48018
4 *30:4 *30:5 1.5843
5 *30:3 *30:5 2.2337
*END

*D_NET *31 0.00243355

*CONN
*I *70:Q O *C 64.4 58.46 *L 0 *D OAI22X3
*I *61:D I *C 52.92 52.92 *L 0.00193 *D DFCX1

*CAP
1 *61:D 0.00049638
2 *31:2 0.000413549
3 *31:3 0.00131211
4 *31:4 0.000211513

*RES
1 *61:D *31:3 7.53761
2 *31:3 *31:4 14.1033
3 *31:4 *31:5 0.40802
4 *31:5 *31:2 5.6525
5 *31:2 *70:Q 5.6525
*END

*D_NET *32 0.00167144

*CONN
*I *74:Q O *C 59.5 57.82 *L 0 *D NAND2XL
*I *69:A I *C 53.06 57.26 *L 0.00363 *D NAND2X3
*I *66:A1 I *C 55.71 57.76 *L 0.00359 *D OAI21X3

*CAP
1 *74:Q 0.000405514
2 *69:A 0.000166752
3 *66:A1 0.00013944
4 *32:3 0.000157827
5 *32:4 0.000318515
6 *32:5 0.000483392

*RES
1 *66:A1 *32:4 7.17737
2 *66:A1 *74:Q 3.33816
3 *32:4 *32:5 1.84958
4 *32:3 *32:5 6.40912
5 *69:A *32:3 1.14279
*END

*D_NET *33 0.00181269

*CONN
*I *75:Q O *C 69.86 57.82 *L 0 *D NAND2XL
*I *68:A I *C 68.74 53.62 *L 0.00363 *D NAND2X3
*I *58:A1 I *C 70.83 53.12 *L 0.00359 *D OAI21X3

*CAP
1 *68:A 0.000122382
2 *33:3 0.000685892
3 *33:4 0.000681756
4 *33:5 0.000322661

*RES
1 *75:Q *33:4 7.24844
2 *58:A1 *33:3 6.0011
3 *33:3 *33:6 1.5843
4 *33:4 *33:5 0.697192
5 *33:6 *33:4 1.46545
6 *33:5 *68:A 5.6525
*END

*D_NET *34 0.00203104

*CONN
*I *67:Q O *C 64.31 68.94 *L 0 *D OAI31X2
*I *62:B1 I *C 54.73 67.39 *L 0.00402 *D OAI21X3

*CAP
1 *62:B1 0.000192362
2 *34:2 0.000151443
3 *34:3 0.000212351
4 *34:4 0.0008348
5 *34:5 0.000138485
6 *34:6 0.000501597

*RES
1 *62:B1 *34:4 7.34413
2 *34:4 *34:7 10.262
3 *34:2 *34:3 0.636692
4 *34:4 *34:5 0.636692
5 *34:6 *34:8 1.88511
6 *34:6 *34:7 0.431912
7 *34:8 *34:2 5.6525
8 *34:2 *67:Q 5.6525
*END

*D_NET *35 0.0014983

*CONN
*I *66:Q O *C 55.02 57.26 *L 0 *D OAI21X3
*I *57:D I *C 52.92 63 *L 0.00193 *D DFCX1

*CAP
1 *57:D 0.000480367
2 *35:2 0.00101793

*RES
1 *57:D *35:3 7.50208
2 *35:2 *35:3 3.82964
3 *35:2 *66:Q 5.6525
*END

*D_NET *36 0.00221352

*CONN
*I *72:Q O *C 81.26 74.42 *L 0 *D INVXL
*I *65:A I *C 71.1 73.93 *L 0.0012 *D NOR2XL
*I *59:B1 I *C 75.32 73.08 *L 0.0028 *D AO32X3

*CAP
1 *72:Q 0.00053134
2 *36:3 0.000497729
3 *36:4 0.000260855
4 *36:5 0.000217641
5 *36:6 8.6588e-05
6 *36:7 0.000619362

*RES
1 *36:8 *36:3 6.38522
2 *36:4 *36:5 0.864288
3 *36:6 *36:7 2.6889
4 *72:Q *36:8 4.98468
5 *36:6 *36:3 5.6525
6 *36:7 *36:4 5.6525
7 *36:4 *65:A 5.6525
8 *36:3 *59:B1 11.305
*END

*D_NET *37 0.00136996

*CONN
*I *76:SUM O *C 77.73 64.68 *L 0 *D HAX3
*I *64:A1 I *C 71.39 57.76 *L 0.00359 *D OAI21X3
*I *56:B I *C 73.64 64.12 *L 0.00142 *D NOR2XL

*CAP
1 *64:A1 0.000356084
2 *56:B 0.000435736
3 *37:3 0.00046062
4 *37:4 0.000117518

*RES
1 *64:A1 *37:4 12.9009
2 *56:B *76:SUM 3.84189
3 *56:B *37:3 7.63257
4 *37:3 *37:4 0.697192
*END

*D_NET *38 0.00113894

*CONN
*I *64:Q O *C 70.7 57.26 *L 0 *D OAI21X3
*I *58:B1 I *C 71.53 53.57 *L 0.00402 *D OAI21X3

*CAP
1 *58:B1 0.000575706
2 *38:2 0.000563239

*RES
1 *58:B1 *38:3 6.79324
2 *64:Q *38:2 7.24844
3 *38:3 *38:2 0.697192
*END

*D_NET *39 0.00712145

*CONN
*I *83:Q O *C 68.26 66.7 *L 0 *D INVXL
*I *70:A2 I *C 65.8 57.96 *L 0.00381 *D OAI22X3
*I *66:A2 I *C 54.6 57.96 *L 0.00372 *D OAI21X3
*I *62:A2 I *C 52.92 68.04 *L 0.00372 *D OAI21X3
*I *58:A2 I *C 69.72 52.92 *L 0.00372 *D OAI21X3

*CAP
1 *66:A2 0.000229268
2 *62:A2 9.55396e-05
3 *39:5 0.000397532
4 *39:6 0.0002488
5 *39:7 0.000283322
6 *39:8 0.000255032
7 *39:9 0.000187677
8 *39:10 0.000648832
9 *39:11 0.000994948
10 *39:12 0.000136959
11 *39:13 0.000368219
12 *39:14 0.000773286
13 *39:15 0.00118926
14 *39:16 0.000123258
15 *39:17 7.83724e-05
16 *39:18 0.00111114

*RES
1 *39:11 *39:12 4.21377
2 *39:13 *39:17 1.53651
3 *39:10 *39:19 6.42076
4 *39:13 *39:18 12.4957
5 *39:6 *39:7 0.96032
6 *39:14 *39:16 2.6889
7 *39:10 *39:20 2.29313
8 *39:15 *39:21 6.91431
9 *39:14 *39:18 8.27033
10 *66:A2 *39:10 6.0011
11 *39:20 *39:11 1.46545
12 *39:15 *39:19 0.431912
13 *39:8 *39:9 0.636692
14 *39:18 *39:21 5.6525
15 *39:16 *39:5 5.6525
16 *39:17 *39:6 5.6525
17 *39:21 *39:8 5.6525
18 *39:5 *58:A2 5.6525
19 *39:6 *83:Q 5.6525
20 *39:8 *70:A2 5.6525
21 *39:12 *62:A2 5.6525
*END

*D_NET *40 0.00100574

*CONN
*I *62:Q O *C 53.34 67.34 *L 0 *D OAI21X3
*I *53:D I *C 52.92 73.08 *L 0.00193 *D DFCX1

*CAP
1 *62:Q 0.000469702
2 *40:2 0.000536035

*RES
1 *62:Q *40:3 7.17737
2 *53:D *40:2 8.01669
3 *40:3 *40:2 0.313064
*END

*D_NET *41 0.00206938

*CONN
*I *65:Q O *C 70.66 74.12 *L 0 *D NOR2XL
*I *60:A I *C 69.72 74.2 *L 0.00134 *D INVXL
*I *56:A I *C 72.82 63.85 *L 0.0012 *D NOR2XL

*CAP
1 *65:Q 0.000327775
2 *60:A 0.000281305
3 *56:A 0.000494718
4 *41:3 0.000965578

*RES
1 *65:Q *41:3 9.09801
2 *56:A *41:4 7.63257
3 *41:4 *41:3 0.697192
4 *60:A *41:5 1.67483
5 *65:Q *41:5 1.05257
*END

*D_NET *42 0.00629397

*CONN
*I *84:A1 I *C 65.23 78.25 *L 0.00245 *D OAI21X2
*I *76:CO O *C 79.38 63.14 *L 0 *D HAX3
*I *72:A I *C 80.92 74.2 *L 0.00134 *D INVXL
*I *63:A1 I *C 68.6 78.12 *L 0.00208 *D AO21X3
*I *59:A1 I *C 74.91 72.66 *L 0.00301 *D AO32X3

*CAP
1 *84:A1 0.000492151
2 *76:CO 0.00115388
3 *72:A 0.00075361
4 *42:5 0.000153572
5 *42:6 0.000214514
6 *42:7 0.000183283
7 *42:8 0.000709788
8 *42:9 0.00148218
9 *42:10 0.000397005
10 *42:11 0.0004985
11 *42:12 0.000255489

*RES
1 *42:8 *42:10 1.08132
2 *42:7 *42:10 1.21181
3 *42:6 *42:11 1.84958
4 *76:CO *42:5 10.9592
5 *42:6 *42:9 21.9867
6 *72:A *42:11 10.5921
7 *84:A1 *42:13 13.2256
8 *42:13 *42:12 0.372488
9 *42:5 *42:8 14.4491
10 *42:7 *42:11 0.756616
11 *42:9 *42:12 0.768256
12 *42:10 *59:A1 5.6525
13 *42:12 *63:A1 5.6525
*END

*D_NET *43 0.0017283

*CONN
*I *59:Q O *C 72.66 74.9 *L 0 *D AO32X3
*I *54:D I *C 75.32 78.12 *L 0.00193 *D DFCX1

*CAP
1 *43:2 0.000906292
2 *43:3 0.000202775
3 *43:4 0.000208368
4 *43:5 0.000410864

*RES
1 *54:D *43:2 7.92174
2 *43:3 *43:4 0.636692
3 *43:2 *43:5 7.60867
4 *43:5 *43:3 5.6525
5 *43:3 *59:Q 5.6525
*END

*D_NET *44 0.00146254

*CONN
*I *58:Q O *C 70.14 53.62 *L 0 *D OAI21X3
*I *52:D I *C 75.32 52.92 *L 0.00193 *D DFCX1

*CAP
1 *52:D 0.00025988
2 *44:2 0.000148729
3 *44:3 0.000366011
4 *44:4 0.000103667
5 *44:5 0.000584253

*RES
1 *52:D *44:2 6.38522
2 *44:3 *44:4 0.48016
3 *44:2 *44:5 9.18072
4 *44:5 *44:3 5.6525
5 *44:3 *58:Q 5.6525
*END

*D_NET *45 0.000962603

*CONN
*I *56:Q O *C 73.26 64.04 *L 0 *D NOR2XL
*I *51:D I *C 75.32 57.96 *L 0.00193 *D DFCX1

*CAP
1 *56:Q 0.000285884
2 *51:D 0.000576299
3 *45:2 0.00010042

*RES
1 *56:Q *45:2 2.24048
2 *51:D *45:2 14.378
*END

*D_NET *46 0.0010269

*CONN
*I *55:Q O *C 70.42 67.9 *L 0 *D NAND2XL
*I *50:D I *C 75.18 67.34 *L 0.00193 *D DFPX3

*CAP
1 *55:Q 0.000223668
2 *50:D 0.000178347
3 *46:2 0.000111332
4 *46:3 0.000513556

*RES
1 *55:Q *46:2 1.60142
2 *50:D *46:3 7.8862
3 *46:3 *46:2 5.6525
*END

*D_NET *47 0.00204817

*CONN
*I *84:B1 I *C 65.66 77.42 *L 0.00287 *D OAI21X2
*I *60:Q O *C 69.38 74.42 *L 0 *D INVXL
*I *55:A I *C 69.16 68.04 *L 0.00148 *D NAND2XL

*CAP
1 *84:B1 0.000205698
2 *60:Q 0.000200228
3 *55:A 0.00096193
4 *47:3 0.000308805
5 *47:4 0.000371507

*RES
1 *84:B1 *47:4 6.79324
2 *55:A *60:Q 14.8332
3 *47:3 *47:5 6.79324
4 *47:5 *47:4 1.08132
5 *60:Q *47:3 1.69163
*END

*D_NET *48 0.00205138

*CONN
*I *84:Q O *C 64.75 77.08 *L 0 *D OAI21X2
*I *49:D I *C 53.34 77.42 *L 0.00193 *D DFPX3

*CAP
1 *49:D 0.000344641
2 *48:2 0.000124238
3 *48:3 0.000167389
4 *48:4 5.17259e-05
5 *48:5 0.000338254
6 *48:6 0.000252003
7 *48:7 0.000696677
8 *48:8 7.645e-05

*RES
1 *48:2 *48:6 6.80488
2 *48:5 *48:8 6.80488
3 *49:D *48:5 7.18901
4 *48:7 *48:8 0.431912
5 *48:2 *48:3 0.313064
6 *48:3 *48:4 0.252564
7 *48:9 *48:7 5.69086
8 *48:6 *48:9 0.431912
9 *48:3 *84:Q 5.6525
*END

