*SPEF "IEEE 1481-1998"
*DESIGN "sar5"
*DATE "Wed Jul  5 17:34:30 2017"
*VENDOR "Cadence Design Systems, Inc."
*PROGRAM "Innovus"
*VERSION "15.28-s017_1"
*DESIGN_FLOW "PIN_CAP NONE" "NAME_SCOPE LOCAL"
*DIVIDER /
*DELIMITER :
*BUS_DELIMITER []
*T_UNIT 1 NS
*C_UNIT 1 PF
*R_UNIT 1 OHM
*L_UNIT 1 HENRY

// MMMC spef file for corner 'ams_rc_corner_maxCaR2'

*NAME_MAP

*1 clk
*2 comp
*3 resetn
*4 out[4]
*5 out[3]
*6 out[2]
*7 out[1]
*8 out[0]
*9 counter[2]
*10 counter[1]
*11 counter[0]
*12 dac_out[4]
*13 dac_out[3]
*14 dac_out[2]
*15 dac_out[1]
*16 dac_out[0]
*17 UNCONNECTED
*18 n_0
*19 n_1
*20 n_2
*21 n_3
*22 n_4
*23 n_5
*24 n_6
*25 n_7
*26 n_8
*27 n_9
*28 n_10
*29 n_12
*30 n_13
*31 n_15
*32 n_16
*33 n_18
*34 n_20
*35 n_21
*36 n_22
*37 n_23
*38 n_24
*39 n_26
*40 n_27
*41 n_28
*42 n_29
*43 n_30
*44 n_31
*45 n_32
*46 n_33
*47 n_34
*48 n_39
*49 counter_reg\[2\]
*50 counter_reg\[0\]
*51 counter_reg\[1\]
*52 dac_out_reg\[2\]
*53 dac_out_reg\[4\]
*54 dac_out_reg\[3\]
*55 g593
*56 g594
*57 dac_out_reg\[0\]
*58 g597
*59 g599
*60 g600
*61 dac_out_reg\[1\]
*62 g598
*63 g606
*64 g605
*65 g609
*66 g596
*67 g604
*68 g602
*69 g603
*70 g610
*71 g611
*72 g613
*73 g612
*74 g607
*75 g608
*76 g614
*77 g615
*78 g617
*79 g616
*80 g619
*81 g620
*82 g618
*83 g624
*84 g2


*PORTS

*1 I *C 0 65.8
*2 I *C 70.84 130.64
*3 I *C 70.84 130.64
*4 O *C 0 68.6
*5 O *C 66.92 130.64
*6 O *C 68.6 0
*7 O *C 64.12 0
*8 O *C 0 58.52


*D_NET *2 0.00885823

*CONN
*P *2 I *C 70.84 130.64 *L 0
*I *83:A I *C 68.6 66.92 *L 0.00138 *D INVXL
*I *59:A3 I *C 73.08 72.52 *L 0.00292 *D AO32X3

*CAP
1 *2 0.00649825
2 *83:A 0.00106187
3 *59:A3 0.000113646
4 *2:3 0.000183109
5 *2:4 0.000192712
6 *2:5 0.000266752
7 *2:6 0.000541888

*RES
1 *83:A *2:5 4.17139
2 *59:A3 *2:7 0.17189
3 *2:3 *2:4 0.345731
4 *2:8 *2:6 1.00945
5 *2 *2:6 25.0393
6 *2:5 *2:6 2.9868
7 *2:8 *2:3 2.1525
8 *2:3 *2:7 4.305
*END

*D_NET *18 0.00143936

*CONN
*I *73:B I *C 59.08 68.04 *L 0.00352 *D NAND2X3
*I *53:QN O *C 62.81 72.78 *L 0 *D DFCX1

*CAP
1 *73:B 7.57873e-05
2 *18:2 0.000638708
3 *18:3 0.00046941
4 *18:4 0.000255455

*RES
1 *73:B *18:4 0.30129
2 *53:QN *18:2 5.73159
3 *18:2 *18:3 1.74713
4 *18:3 *18:4 0.544343
*END

*D_NET *34 0.00202989

*CONN
*I *67:Q O *C 64.31 68.94 *L 0 *D OAI31X2
*I *62:B1 I *C 54.73 67.39 *L 0.00361 *D OAI21X3

*CAP
1 *62:B1 0.000192362
2 *34:2 0.000151443
3 *34:3 0.000212351
4 *34:4 0.000833854
5 *34:5 0.000138485
6 *34:6 0.000501392

*RES
1 *62:B1 *34:4 3.01596
2 *34:4 *34:7 4.59809
3 *34:2 *34:3 0.366199
4 *34:4 *34:5 0.366199
5 *34:6 *34:8 1.02855
6 *34:6 *34:7 0.172347
7 *34:8 *34:2 2.1525
8 *34:2 *67:Q 2.1525
*END

*D_NET *3 0.0146377

*CONN
*P *3 I *C 70.84 130.64 *L 0
*I *61:RN I *C 59.78 53.62 *L 0.00427 *D DFCX1
*I *57:RN I *C 59.78 63.7 *L 0.00427 *D DFCX1
*I *54:RN I *C 82.18 77.42 *L 0.00427 *D DFCX1
*I *53:RN I *C 59.78 73.78 *L 0.00427 *D DFCX1
*I *52:RN I *C 82.18 53.62 *L 0.00427 *D DFCX1
*I *51:RN I *C 82.18 57.26 *L 0.00427 *D DFCX1
*I *50:SN I *C 81.01 67.49 *L 0.00368 *D DFPX3
*I *49:SN I *C 59.17 77.57 *L 0.00368 *D DFPX3

*CAP
1 *3 0.00472114
2 *61:RN 0.00172374
3 *52:RN 0.000621285
4 *3:9 0.000194019
5 *3:10 0.0010968
6 *3:11 0.000982266
7 *3:12 0.000685297
8 *3:13 0.00116246
9 *3:14 0.000819839
10 *3:15 0.000530153
11 *3:16 0.000236413
12 *3:17 0.00112292
13 *3:18 0.000215743
14 *3:19 0.00044501
15 *3:20 8.06093e-05

*RES
1 *3:21 *3:19 1.64949
2 *3:9 *3:10 3.05081
3 *3:11 *3:16 2.23561
4 *3:19 *3:20 0.172347
5 *49:SN *3:12 5.70632
6 *3:12 *3:13 1.64949
7 *3:10 *3:16 0.611397
8 *61:RN *3:22 7.94811
9 *3:13 *3:14 2.03182
10 *53:RN *3:12 4.5088
11 *3:23 *3:11 0.426699
12 *3:14 *3:22 0.2229
13 *3:10 *3:17 6.00558
14 *3:18 *3:21 0.172347
15 *3:23 *3:15 1.40132
16 *54:RN *3:9 4.7126
17 *3:17 *3:18 0.630498
18 *3:13 *3:20 3.98669
19 *3 *3:17 24.1287
20 *52:RN *3:15 5.73159
21 *3:15 *51:RN 4.305
22 *3:16 *50:SN 4.305
23 *3:22 *57:RN 4.305
*END

*D_NET *19 0.002264

*CONN
*I *69:B I *C 53.48 57.96 *L 0.00352 *D NAND2X3
*I *57:QN O *C 62.81 62.7 *L 0 *D DFCX1

*CAP
1 *69:B 0.000447655
2 *19:2 0.000655453
3 *19:3 0.00116089

*RES
1 *69:B *19:3 2.9868
2 *57:QN *19:2 3.1715
3 *19:2 *19:3 7.75048
*END

*D_NET *35 0.00144282

*CONN
*I *66:Q O *C 55.02 57.26 *L 0 *D OAI21X3
*I *57:D I *C 52.92 63 *L 0.00182 *D DFCX1

*CAP
1 *57:D 0.000480418
2 *35:2 0.000962401

*RES
1 *57:D *35:3 3.1906
2 *35:2 *35:3 2.03182
3 *35:2 *66:Q 2.1525
*END

*D_NET *4 0.00566555

*CONN
*P *4 O *C 0 68.6 *L 0
*I *73:Q O *C 58.45 68.46 *L 0 *D NAND2X3

*CAP
1 *4 0.00529452
2 *4:2 0.000170416
3 *4:3 0.000200618

*RES
1 *4 *4:4 20.6761
2 *4:2 *4:3 0.366199
3 *4:4 *4:2 2.1525
4 *4:2 *73:Q 2.1525
*END

*D_NET *20 0.00217737

*CONN
*I *68:B I *C 69.16 52.92 *L 0.00352 *D NAND2X3
*I *52:QN O *C 85.21 52.62 *L 0 *D DFCX1

*CAP
1 *68:B 0.000257617
2 *20:2 0.000309466
3 *20:3 0.00161029

*RES
1 *68:B *20:3 2.5792
2 *52:QN *20:2 2.5601
3 *20:2 *20:3 10.1961
*END

*D_NET *36 0.00221985

*CONN
*I *72:Q O *C 81.26 74.42 *L 0 *D INVXL
*I *65:A I *C 71.1 73.93 *L 0.00118 *D NOR2XL
*I *59:B1 I *C 75.32 73.08 *L 0.00255 *D AO32X3

*CAP
1 *72:Q 0.000531586
2 *36:3 0.00050369
3 *36:4 0.000261374
4 *36:5 0.000217641
5 *36:6 8.6588e-05
6 *36:7 0.000618969

*RES
1 *36:8 *36:3 2.56965
2 *36:4 *36:5 0.458548
3 *36:6 *36:7 1.42659
4 *72:Q *36:8 2.61059
5 *36:6 *36:3 2.1525
6 *36:7 *36:4 2.1525
7 *36:4 *65:A 2.1525
8 *36:3 *59:B1 4.305
*END

*D_NET *5 0.00485736

*CONN
*P *5 O *C 66.92 130.64 *L 0
*I *63:Q O *C 67.13 78.62 *L 0 *D AO21X3

*CAP
1 *5 0.00485736

*RES
1 *5 *63:Q 20.4412
*END

*D_NET *21 0.00280826

*CONN
*I *81:A I *C 71.66 63.85 *L 0.00118 *D NOR2XL
*I *76:A I *C 82.74 62.58 *L 0.00427 *D HAX3
*I *50:QN O *C 85.02 66.38 *L 0 *D DFPX3

*CAP
1 *76:A 0.000207408
2 *50:QN 0.000136719
3 *21:3 0.000599432
4 *21:4 0.000173419
5 *21:5 0.000263854
6 *21:6 0.000151933
7 *21:7 0.00100603
8 *21:8 0.000269465

*RES
1 *76:A *21:4 2.5601
2 *21:5 *21:6 0.458548
3 *21:7 *21:8 3.67793
4 *50:QN *21:3 3.80199
5 *21:3 *21:8 3.35619
6 *21:7 *21:5 2.1525
7 *21:8 *21:4 2.1525
8 *21:5 *81:A 2.1525
*END

*D_NET *37 0.00136483

*CONN
*I *76:SUM O *C 77.73 64.68 *L 0 *D HAX3
*I *64:A1 I *C 71.39 57.76 *L 0.00315 *D OAI21X3
*I *56:B I *C 73.64 64.12 *L 0.00139 *D NOR2XL

*CAP
1 *64:A1 0.000356432
2 *56:B 0.00043538
3 *37:3 0.000455499
4 *37:4 0.000117518

*RES
1 *64:A1 *37:4 5.09492
2 *56:B *76:SUM 2.03832
3 *56:B *37:3 3.14622
4 *37:3 *37:4 0.426699
*END

*D_NET *6 0.00515557

*CONN
*P *6 O *C 68.6 0 *L 0
*I *68:Q O *C 68.53 52.5 *L 0 *D NAND2X3

*CAP
1 *6 0.00271485
2 *68:Q 0.000198568
3 *6:2 0.00224215

*RES
1 *68:Q *6:2 10.9097
2 *6 *6:3 9.86853
3 *6:3 *6:2 0.2229
*END

*D_NET *22 0.000916592

*CONN
*I *84:A2 I *C 64.12 77.56 *L 0.00236 *D OAI21X2
*I *80:A I *C 65.54 73.93 *L 0.00118 *D NOR2XL
*I *49:QN O *C 63.18 76.46 *L 0 *D DFPX3

*CAP
1 *84:A2 6.50609e-05
2 *80:A 0.000118792
3 *49:QN 6.4219e-05
4 *22:3 0.00066852

*RES
1 *80:A *22:3 0.572273
2 *49:QN *84:A2 0.30129
3 *22:3 *22:4 3.58864
4 *22:4 *84:A2 2.1525
*END

*D_NET *38 0.00114382

*CONN
*I *64:Q O *C 70.7 57.26 *L 0 *D OAI21X3
*I *58:B1 I *C 71.53 53.57 *L 0.00361 *D OAI21X3

*CAP
1 *58:B1 0.000575877
2 *38:2 0.000567941

*RES
1 *58:B1 *38:3 2.75772
2 *64:Q *38:2 2.94242
3 *38:3 *38:2 0.426699
*END

*D_NET *7 0.00517052

*CONN
*P *7 O *C 64.12 0 *L 0
*I *71:Q O *C 64.19 52.5 *L 0 *D NAND2X3

*CAP
1 *7 0.00278001
2 *71:Q 0.000182567
3 *7:2 0.00213976
4 *7:3 6.81804e-05

*RES
1 *71:Q *7:2 10.7059
2 *7 *7:3 10.0723
3 *7:2 *7:3 0.2229
*END

*D_NET *23 0.000651959

*CONN
*I *80:Q O *C 65.98 74.12 *L 0 *D NOR2XL
*I *67:A2 I *C 65.24 68.04 *L 0.00221 *D OAI31X2

*CAP
1 *80:Q 0.000159676
2 *67:A2 0.000492283

*RES
1 *80:Q *67:A2 5.52779
*END

*D_NET *39 0.00711209

*CONN
*I *83:Q O *C 68.26 66.7 *L 0 *D INVXL
*I *70:A2 I *C 65.8 57.96 *L 0.00334 *D OAI22X3
*I *66:A2 I *C 54.6 57.96 *L 0.00323 *D OAI21X3
*I *62:A2 I *C 52.92 68.04 *L 0.00323 *D OAI21X3
*I *58:A2 I *C 69.72 52.92 *L 0.00323 *D OAI21X3

*CAP
1 *66:A2 0.000228627
2 *62:A2 9.55396e-05
3 *39:5 0.000397283
4 *39:6 0.0002488
5 *39:7 0.000283322
6 *39:8 0.000255032
7 *39:9 0.000187677
8 *39:10 0.000648579
9 *39:11 0.000996885
10 *39:12 0.000136959
11 *39:13 0.000359615
12 *39:14 0.000776259
13 *39:15 0.00118731
14 *39:16 0.000123258
15 *39:17 7.83724e-05
16 *39:18 0.00110857

*RES
1 *39:11 *39:12 2.23561
2 *39:13 *39:17 0.815197
3 *39:10 *39:19 2.5601
4 *39:13 *39:18 5.83998
5 *39:6 *39:7 0.509498
6 *39:14 *39:16 1.42659
7 *39:10 *39:20 1.21662
8 *39:15 *39:21 3.66838
9 *39:14 *39:18 3.59819
10 *66:A2 *39:10 2.36585
11 *39:20 *39:11 0.834297
12 *39:15 *39:19 0.172347
13 *39:8 *39:9 0.366199
14 *39:18 *39:21 2.1525
15 *39:16 *39:5 2.1525
16 *39:17 *39:6 2.1525
17 *39:21 *39:8 2.1525
18 *39:5 *58:A2 2.1525
19 *39:6 *83:Q 2.1525
20 *39:8 *70:A2 2.1525
21 *39:12 *62:A2 2.1525
*END

*D_NET *9 0.00850271

*CONN
*I *82:A I *C 69.98 63.85 *L 0.00118 *D NOR2XL
*I *81:B I *C 70.84 64.12 *L 0.00139 *D NOR2XL
*I *79:A1 I *C 64.69 63.2 *L 0.00315 *D OAI21X3
*I *78:A I *C 68.04 63 *L 0.00309 *D NAND3X3
*I *65:B I *C 70.28 74.2 *L 0.00139 *D NOR2XL
*I *64:A2 I *C 70.28 57.96 *L 0.00323 *D OAI21X3
*I *63:A2 I *C 69.53 77.42 *L 0.00189 *D AO21X3
*I *59:A2 I *C 73.64 73.08 *L 0.00267 *D AO32X3
*I *49:Q O *C 61.88 77.56 *L 0 *D DFPX3

*CAP
1 *81:B 5.68165e-05
2 *9:9 0.000269996
3 *9:10 0.000128283
4 *9:11 0.000852187
5 *9:12 0.000287664
6 *9:13 0.00124486
7 *9:14 6.81804e-05
8 *9:15 0.000159797
9 *9:16 0.000856998
10 *9:17 0.00013916
11 *9:18 0.000171961
12 *9:19 0.000246942
13 *9:20 0.000176226
14 *9:21 0.000886133
15 *9:22 4.78752e-05
16 *9:23 0.000152092
17 *9:24 0.000232777
18 *9:25 0.000166576
19 *9:26 0.000324819
20 *9:27 0.00086528
21 *9:28 0.000153412
22 *9:29 0.000220738
23 *9:30 0.00079394

*RES
1 *9:14 *9:26 0.605222
2 *9:19 *9:20 0.458548
3 *9:31 *9:12 0.2229
4 *9:9 *9:32 0.207036
5 *9:31 *9:13 2.41414
6 *9:21 *9:29 3.78289
7 *9:15 *9:26 0.2229
8 *9:21 *9:22 0.2229
9 *9:11 *9:12 0.697571
10 *9:15 *9:16 0.1624
11 *9:10 *9:28 2.5601
12 *9:22 *9:23 0.143299
13 *64:A2 *9:16 3.83384
14 *9:10 *9:11 1.32469
15 *9:33 *9:29 0.796096
16 *9:13 *9:14 0.2229
17 *9:17 *9:18 0.366199
18 *9:28 *9:30 2.64939
19 *9:27 *9:34 1.42659
20 *9:24 *9:25 0.458548
21 *9:27 *9:11 2.1525
22 *9:33 *9:15 2.1525
23 *9:28 *9:17 2.1525
24 *9:29 *9:19 2.1525
25 *9:30 *9:24 2.1525
26 *9:34 *9:32 4.305
27 *9:11 *65:B 2.1525
28 *9:19 *78:A 2.1525
29 *9:24 *49:Q 2.1525
30 *9:26 *81:B 2.1525
31 *9:17 *63:A2 2.1525
32 *9:32 *59:A2 4.305
33 *9:22 *79:A1 4.305
34 *81:B *82:A 1e-06
*END

*D_NET *25 0.00299317

*CONN
*I *82:Q O *C 69.54 64.04 *L 0 *D NOR2XL
*I *77:A I *C 68.04 57.96 *L 0.00137 *D NAND2XL
*I *70:B1 I *C 63.42 58.38 *L 0.0033 *D OAI22X3

*CAP
1 *77:A 0.000592264
2 *70:B1 0.000215658
3 *25:3 0.000384882
4 *25:4 0.000198298
5 *25:5 0.000286682
6 *25:6 0.000176366
7 *25:7 0.000280926
8 *25:8 0.000711716
9 *25:9 0.00014638

*RES
1 *77:A *25:7 3.37529
2 *70:B1 *25:4 0.563359
3 *25:9 *25:10 0.611397
4 *25:3 *25:4 0.582376
5 *25:5 *25:6 0.458548
6 *25:7 *25:9 2.34465
7 *25:8 *25:9 3.37529
8 *25:3 *25:8 2.9868
9 *25:10 *25:5 2.1525
10 *25:5 *82:Q 2.1525
*END

*D_NET *41 0.00205668

*CONN
*I *65:Q O *C 70.66 74.12 *L 0 *D NOR2XL
*I *60:A I *C 69.72 74.2 *L 0.00138 *D INVXL
*I *56:A I *C 72.82 63.85 *L 0.00118 *D NOR2XL

*CAP
1 *65:Q 0.000328006
2 *60:A 0.000281305
3 *56:A 0.000496945
4 *41:3 0.000950427

*RES
1 *65:Q *41:3 3.98052
2 *56:A *41:4 3.14622
3 *41:4 *41:3 0.426699
4 *60:A *41:5 0.854547
5 *65:Q *41:5 0.592479
*END

*D_NET *10 0.00494771

*CONN
*I *79:A2 I *C 65.8 63 *L 0.00323 *D OAI21X3
*I *77:B I *C 66.92 57.4 *L 0.00146 *D NAND2XL
*I *75:B I *C 69.72 57.4 *L 0.00146 *D NAND2XL
*I *67:A3 I *C 65.66 68.46 *L 0.00245 *D OAI31X2
*I *51:Q O *C 83.02 56.14 *L 0 *D DFCX1

*CAP
1 *10:5 0.00025645
2 *10:6 0.000286713
3 *10:7 0.00055275
4 *10:8 0.000472338
5 *10:9 0.00096166
6 *10:10 0.00100711
7 *10:11 0.000163316
8 *10:12 8.21414e-05
9 *10:13 0.00105813
10 *10:14 0.000107103

*RES
1 *10:11 *10:14 0.630498
2 *10:5 *10:6 0.509498
3 *10:15 *10:10 1.21662
4 *10:8 *10:9 0.809021
5 *10:11 *10:12 0.172347
6 *10:16 *10:10 1.02546
7 *10:12 *10:13 3.68748
8 *10:7 *10:16 0.401423
9 *10:15 *10:8 0.426699
10 *10:13 *10:17 0.172347
11 *67:A3 *10:9 4.17139
12 *10:7 *10:17 2.7639
13 *10:14 *10:5 2.1525
14 *10:16 *75:B 2.1525
15 *10:9 *79:A2 2.1525
16 *10:10 *77:B 2.1525
17 *10:5 *51:Q 4.305
*END

*D_NET *26 0.00556091

*CONN
*I *78:C I *C 66.36 63 *L 0.00371 *D NAND3X3
*I *76:B I *C 82.26 63.14 *L 0.00457 *D HAX3
*I *74:B I *C 59.64 57.4 *L 0.00146 *D NAND2XL
*I *51:QN O *C 85.21 58.26 *L 0 *D DFCX1

*CAP
1 *78:C 0.000213043
2 *76:B 0.000198819
3 *74:B 0.000891919
4 *51:QN 0.000348446
5 *26:4 0.000154084
6 *26:5 0.00104804
7 *26:6 0.00148415
8 *26:7 0.000346709
9 *26:8 0.0008757

*RES
1 *76:B *26:8 5.1393
2 *26:4 *26:8 3.76379
3 *51:QN *26:4 3.1715
4 *26:6 *26:8 5.11408
5 *26:6 *26:7 0.197623
6 *78:C *26:7 4.9355
7 *26:5 *26:7 4.80835
8 *74:B *26:5 3.57909
*END

*D_NET *42 0.00632004

*CONN
*I *84:A1 I *C 65.23 78.25 *L 0.00218 *D OAI21X2
*I *76:CO O *C 79.38 63.14 *L 0 *D HAX3
*I *72:A I *C 80.92 74.2 *L 0.00138 *D INVXL
*I *63:A1 I *C 68.6 78.12 *L 0.00189 *D AO21X3
*I *59:A1 I *C 74.91 72.66 *L 0.00267 *D AO32X3

*CAP
1 *84:A1 0.000494445
2 *76:CO 0.0011612
3 *72:A 0.00075191
4 *42:5 0.000153572
5 *42:6 0.000214448
6 *42:7 0.000183283
7 *42:8 0.000750332
8 *42:9 0.00146775
9 *42:10 0.000393337
10 *42:11 0.00049427
11 *42:12 0.000255489

*RES
1 *42:8 *42:10 0.630498
2 *42:7 *42:10 0.586121
3 *42:6 *42:11 1.0381
4 *76:CO *42:5 5.02479
5 *42:6 *42:9 9.09734
6 *72:A *42:11 4.77319
7 *84:A1 *42:13 5.324
8 *42:13 *42:12 0.197623
9 *42:5 *42:8 5.91629
10 *42:7 *42:11 0.401423
11 *42:9 *42:12 0.407598
12 *42:10 *59:A1 2.1525
13 *42:12 *63:A1 2.1525
*END

*D_NET *12 0.00159099

*CONN
*I *67:B1 I *C 63.56 67.48 *L 0.00251 *D OAI31X2
*I *53:Q O *C 60.62 74.9 *L 0 *D DFCX1

*CAP
1 *67:B1 0.000344766
2 *53:Q 0.000170013
3 *12:2 0.000898704
4 *12:3 0.000177512

*RES
1 *67:B1 *12:3 1.46604
2 *53:Q *12:2 6.75059
3 *12:2 *12:3 0.272171
*END

*D_NET *28 0.00299481

*CONN
*I *78:Q O *C 67.03 62.6 *L 0 *D NAND3X3
*I *73:A I *C 58.66 67.34 *L 0.00318 *D NAND2X3
*I *62:A1 I *C 54.03 67.84 *L 0.00315 *D OAI21X3

*CAP
1 *78:Q 0.000248636
2 *62:A1 0.000199524
3 *28:3 0.000271951
4 *28:4 0.000191375
5 *28:5 0.00145374
6 *28:6 0.000178146
7 *28:7 0.000451436

*RES
1 *28:3 *28:6 2.55392
2 *28:8 *28:6 0.630498
3 *78:Q *28:4 2.5601
4 *28:5 *28:7 0.824747
5 *28:4 *28:5 7.95428
6 *62:A1 *28:3 0.863461
7 *28:8 *28:7 0.799471
8 *28:7 *73:A 2.1525
*END

*D_NET *44 0.00150569

*CONN
*I *58:Q O *C 70.14 53.62 *L 0 *D OAI21X3
*I *52:D I *C 75.32 52.92 *L 0.00182 *D DFCX1

*CAP
1 *52:D 0.00025988
2 *44:2 0.000148729
3 *44:3 0.000366011
4 *44:4 0.000103667
5 *44:5 0.000627402

*RES
1 *52:D *44:2 2.56965
2 *44:3 *44:4 0.254749
3 *44:2 *44:5 3.96759
4 *44:5 *44:3 2.1525
5 *44:3 *58:Q 2.1525
*END

*D_NET *13 0.00355243

*CONN
*I *63:B1 I *C 68.04 78.12 *L 0.00235 *D AO21X3
*I *59:B2 I *C 76.44 73.64 *L 0.00272 *D AO32X3
*I *54:Q O *C 83.02 76.3 *L 0 *D DFCX1

*CAP
1 *59:B2 0.000596832
2 *13:3 0.00023329
3 *13:4 0.000165836
4 *13:5 0.000738407
5 *13:6 0.000214314
6 *13:7 0.000106646
7 *13:8 0.000697
8 *13:9 0.000800109

*RES
1 *13:5 *13:10 2.7639
2 *63:B1 *13:5 4.9164
3 *13:6 *13:7 0.172347
4 *13:6 *13:9 0.630498
5 *13:3 *13:4 0.366199
6 *59:B2 *13:9 5.3431
7 *13:7 *13:8 1.85329
8 *13:8 *13:10 0.172347
9 *13:11 *13:9 2.42649
10 *13:11 *13:3 2.1525
11 *13:3 *54:Q 2.1525
*END

*D_NET *29 0.000824752

*CONN
*I *71:B I *C 63.56 52.92 *L 0.00352 *D NAND2X3
*I *70:B2 I *C 63 57.96 *L 0.00363 *D OAI22X3
*I *61:QN O *C 62.81 52.62 *L 0 *D DFCX1

*CAP
1 *70:B2 0.000192412
2 *61:QN 0.00063234

*RES
1 *61:QN *71:B 0.291188
2 *70:B2 *61:QN 5.73159
*END

*D_NET *45 0.000958334

*CONN
*I *56:Q O *C 73.26 64.04 *L 0 *D NOR2XL
*I *51:D I *C 75.32 57.96 *L 0.00182 *D DFCX1

*CAP
1 *56:Q 0.000276589
2 *51:D 0.000581325
3 *45:2 0.00010042

*RES
1 *56:Q *45:2 1.15465
2 *51:D *45:2 5.93539
*END

*D_NET *31 0.00242206

*CONN
*I *70:Q O *C 64.4 58.46 *L 0 *D OAI22X3
*I *61:D I *C 52.92 52.92 *L 0.00182 *D DFCX1

*CAP
1 *61:D 0.000492621
2 *31:2 0.000415636
3 *31:3 0.00130229
4 *31:4 0.000211513

*RES
1 *61:D *31:3 3.18105
2 *31:3 *31:4 6.63608
3 *31:4 *31:5 0.188073
4 *31:5 *31:2 2.1525
5 *31:2 *70:Q 2.1525
*END

*D_NET *47 0.00208734

*CONN
*I *84:B1 I *C 65.66 77.42 *L 0.00263 *D OAI21X2
*I *60:Q O *C 69.38 74.42 *L 0 *D INVXL
*I *55:A I *C 69.16 68.04 *L 0.00137 *D NAND2XL

*CAP
1 *84:B1 0.000205698
2 *60:Q 0.000200228
3 *55:A 0.0010011
4 *47:3 0.000308805
5 *47:4 0.000371507

*RES
1 *84:B1 *47:4 2.75772
2 *55:A *60:Q 6.12009
3 *47:3 *47:5 2.75772
4 *47:5 *47:4 0.630498
5 *60:Q *47:3 0.863461
*END

*D_NET *16 0.000770235

*CONN
*I *79:B1 I *C 63.99 63.65 *L 0.00361 *D OAI21X3
*I *57:Q O *C 60.62 64.82 *L 0 *D DFCX1

*CAP
1 *57:Q 0.000149685
2 *16:2 0.00062055

*RES
1 *57:Q *16:3 4.5088
2 *79:B1 *16:2 2.77345
3 *16:2 *16:3 0.376146
*END

*D_NET *32 0.00167404

*CONN
*I *74:Q O *C 59.5 57.82 *L 0 *D NAND2XL
*I *69:A I *C 53.06 57.26 *L 0.00318 *D NAND2X3
*I *66:A1 I *C 55.71 57.76 *L 0.00315 *D OAI21X3

*CAP
1 *74:Q 0.000409246
2 *69:A 0.000166752
3 *66:A1 0.00013944
4 *32:3 0.000157827
5 *32:4 0.000317857
6 *32:5 0.000482923

*RES
1 *66:A1 *32:4 2.96152
2 *66:A1 *74:Q 1.73702
3 *32:4 *32:5 1.0381
4 *32:3 *32:5 2.55392
5 *69:A *32:3 0.572273
*END

*D_NET *48 0.00204781

*CONN
*I *84:Q O *C 64.75 77.08 *L 0 *D OAI21X2
*I *49:D I *C 53.34 77.42 *L 0.00183 *D DFPX3

*CAP
1 *49:D 0.000340715
2 *48:2 0.000124238
3 *48:3 0.000167745
4 *48:4 5.17259e-05
5 *48:5 0.000338254
6 *48:6 0.000252003
7 *48:7 0.000696683
8 *48:8 7.645e-05

*RES
1 *48:2 *48:6 2.7639
2 *48:5 *48:8 2.7639
3 *49:D *48:5 2.9677
4 *48:7 *48:8 0.172347
5 *48:2 *48:3 0.2229
6 *48:3 *48:4 0.1624
7 *48:9 *48:7 3.07609
8 *48:6 *48:9 0.172347
9 *48:3 *84:Q 2.1525
*END

*D_NET *1 0.0153106

*CONN
*P *1 I *C 0 65.8 *L 0
*I *61:CP I *C 50.68 52.92 *L 0.0019 *D DFCX1
*I *57:CP I *C 50.68 63 *L 0.0019 *D DFCX1
*I *54:CP I *C 73.08 78.12 *L 0.0019 *D DFCX1
*I *53:CP I *C 50.68 73.08 *L 0.0019 *D DFCX1
*I *52:CP I *C 73.08 52.92 *L 0.0019 *D DFCX1
*I *51:CP I *C 73.08 57.96 *L 0.0019 *D DFCX1
*I *50:CP I *C 73.08 68.6 *L 0.00192 *D DFPX3
*I *49:CP I *C 51.24 78.68 *L 0.00192 *D DFPX3

*CAP
1 *1 0.00467226
2 *57:CP 7.34163e-05
3 *53:CP 7.34163e-05
4 *50:CP 0.00149402
5 *49:CP 0.000112875
6 *1:9 6.15009e-05
7 *1:10 0.000326099
8 *1:11 0.000147485
9 *1:12 0.000865845
10 *1:13 0.000971391
11 *1:14 0.000103168
12 *1:15 0.0009849
13 *1:16 0.00240579
14 *1:17 0.000585788
15 *1:18 0.000325882
16 *1:19 0.00210678

*RES
1 *1:12 *1:18 1.0381
2 *1:15 *1:19 10.2854
3 *1:20 *1:13 0.2229
4 *50:CP *1:14 5.63619
5 *1:9 *1:14 0.2229
6 *1:16 *1:17 2.05709
7 *1:10 *1:20 0.401423
8 *49:CP *1:16 2.72477
9 *1:9 *1:16 12.6417
10 *1:10 *1:11 0.366199
11 *1:13 *1:18 3.25461
12 *51:CP *1:15 6.13919
13 *1 *1:12 19.9754
14 *1:12 *1:17 2.66849
15 *1:19 *1:10 2.1525
16 *1:14 *54:CP 2.1525
17 *1:15 *52:CP 2.1525
18 *1:10 *61:CP 2.1525
19 *1:17 *53:CP 2.1525
20 *1:18 *57:CP 2.1525
*END

*D_NET *33 0.00181146

*CONN
*I *75:Q O *C 69.86 57.82 *L 0 *D NAND2XL
*I *68:A I *C 68.74 53.62 *L 0.00318 *D NAND2X3
*I *58:A1 I *C 70.83 53.12 *L 0.00315 *D OAI21X3

*CAP
1 *68:A 0.000122382
2 *33:3 0.000685797
3 *33:4 0.000681494
4 *33:5 0.000321789

*RES
1 *75:Q *33:4 2.94242
2 *58:A1 *33:3 2.36585
3 *33:3 *33:6 0.783745
4 *33:4 *33:5 0.426699
5 *33:6 *33:4 0.834297
6 *33:5 *68:A 2.1525
*END

*D_NET *8 0.00506128

*CONN
*P *8 O *C 0 58.52 *L 0
*I *69:Q O *C 52.85 58.38 *L 0 *D NAND2X3

*CAP
1 *8 0.00465675
2 *8:2 0.000244012
3 *8:3 0.000160513

*RES
1 *8 *8:4 18.6381
2 *8:2 *8:3 0.366199
3 *8:4 *8:2 2.1525
4 *8:2 *69:Q 2.1525
*END

*D_NET *24 0.00255407

*CONN
*I *79:Q O *C 65.38 63.7 *L 0 *D OAI21X3
*I *66:B1 I *C 56.41 57.31 *L 0.00361 *D OAI21X3

*CAP
1 *66:B1 0.000218959
2 *24:2 0.000891563
3 *24:3 0.000169649
4 *24:4 0.000222046
5 *24:5 0.00105185

*RES
1 *24:5 *24:6 4.57899
2 *66:B1 *24:2 0.863461
3 *24:3 *24:4 0.366199
4 *24:2 *24:5 4.41339
5 *24:6 *24:3 2.1525
6 *24:3 *79:Q 2.1525
*END

*D_NET *40 0.00100391

*CONN
*I *62:Q O *C 53.34 67.34 *L 0 *D OAI21X3
*I *53:D I *C 52.92 73.08 *L 0.00182 *D DFCX1

*CAP
1 *62:Q 0.000469572
2 *40:2 0.000534333

*RES
1 *62:Q *40:3 2.96152
2 *53:D *40:2 3.35002
3 *40:3 *40:2 0.2229
*END

*D_NET *11 0.00441996

*CONN
*I *82:B I *C 69.16 64.12 *L 0.00139 *D NOR2XL
*I *80:B I *C 66.36 74.2 *L 0.00139 *D NOR2XL
*I *78:B I *C 67.34 63.7 *L 0.00328 *D NAND3X3
*I *55:B I *C 70.28 67.48 *L 0.00146 *D NAND2XL
*I *50:Q O *C 83.72 67.48 *L 0 *D DFPX3

*CAP
1 *82:B 0.000359736
2 *80:B 0.000168034
3 *78:B 0.000343208
4 *11:5 8.88277e-05
5 *11:6 0.000234971
6 *11:7 0.000166576
7 *11:8 0.000358119
8 *11:9 9.34453e-05
9 *11:10 0.00121634
10 *11:11 0.0013907

*RES
1 *11:8 *11:11 0.586121
2 *11:8 *11:9 0.426699
3 *80:B *11:5 0.582376
4 *11:11 *11:12 7.04368
5 *82:B *11:9 2.73315
6 *78:B *11:10 2.9677
7 *11:6 *11:7 0.458548
8 *11:9 *11:10 0.630498
9 *11:5 *11:10 4.79571
10 *11:12 *11:6 2.1525
11 *11:11 *55:B 2.1525
12 *11:6 *50:Q 2.1525
*END

*D_NET *27 0.00477356

*CONN
*I *81:Q O *C 71.22 64.04 *L 0 *D NOR2XL
*I *75:A I *C 68.6 57.96 *L 0.00137 *D NAND2XL
*I *74:A I *C 60.76 57.96 *L 0.00137 *D NAND2XL
*I *67:A1 I *C 64.68 68.6 *L 0.00221 *D OAI31X2

*CAP
1 *81:Q 0.000181611
2 *75:A 0.000340128
3 *74:A 0.000242534
4 *67:A1 0.000388342
5 *27:4 0.000135454
6 *27:5 0.000345698
7 *27:6 0.000377163
8 *27:7 0.000109151
9 *27:8 0.00190158
10 *27:9 0.000160481
11 *27:10 0.000118976
12 *27:11 0.000472441

*RES
1 *74:A *27:8 2.5601
2 *27:7 *27:8 2.43941
3 *81:Q *27:5 2.783
4 *27:5 *27:11 3.1524
5 *27:6 *27:7 0.426699
6 *27:9 *27:11 0.630498
7 *27:8 *27:10 4.39429
8 *27:4 *27:6 3.16532
9 *27:9 *27:10 0.172347
10 *67:A1 *27:4 1.44584
11 *75:A *27:11 4.9164
*END

*D_NET *43 0.00176514

*CONN
*I *59:Q O *C 72.66 74.9 *L 0 *D AO32X3
*I *54:D I *C 75.32 78.12 *L 0.00182 *D DFCX1

*CAP
1 *43:2 0.000898764
2 *43:3 0.000202775
3 *43:4 0.000208933
4 *43:5 0.000454672

*RES
1 *54:D *43:2 3.38484
2 *43:3 *43:4 0.366199
3 *43:2 *43:5 3.16195
4 *43:5 *43:3 2.1525
5 *43:3 *59:Q 2.1525
*END

*D_NET *14 0.00228081

*CONN
*I *64:B1 I *C 72.09 57.31 *L 0.00361 *D OAI21X3
*I *52:Q O *C 83.02 54.74 *L 0 *D DFCX1

*CAP
1 *52:Q 0.000634965
2 *14:2 8.55953e-05
3 *14:3 0.000180349
4 *14:4 0.000196544
5 *14:5 0.00118336

*RES
1 *52:Q *14:2 3.1715
2 *14:3 *14:4 0.366199
3 *14:2 *14:5 6.23803
4 *14:5 *14:3 2.1525
5 *14:3 *64:B1 2.1525
*END

*D_NET *30 0.00152353

*CONN
*I *77:Q O *C 66.78 57.82 *L 0 *D NAND2XL
*I *71:A I *C 63.98 53.62 *L 0.00318 *D NAND2X3
*I *70:A1 I *C 64.68 57.96 *L 0.00306 *D OAI22X3

*CAP
1 *71:A 0.000334195
2 *30:3 0.000247541
3 *30:4 0.00014216
4 *30:5 0.000799632

*RES
1 *70:A1 *30:4 4.5088
2 *71:A *30:5 2.9677
3 *77:Q *30:3 2.53482
4 *30:4 *30:5 0.783745
5 *30:3 *30:5 1.2419
*END

*D_NET *46 0.00102702

*CONN
*I *55:Q O *C 70.42 67.9 *L 0 *D NAND2XL
*I *50:D I *C 75.18 67.34 *L 0.00183 *D DFPX3

*CAP
1 *55:Q 0.000223668
2 *50:D 0.000178347
3 *46:2 0.000111332
4 *46:3 0.000513676

*RES
1 *55:Q *46:2 0.883666
2 *50:D *46:3 3.3944
3 *46:3 *46:2 2.1525
*END

