*SPEF "IEEE 1481-1998"
*DESIGN "sar5"
*DATE "Wed Jul  5 17:34:01 2017"
*VENDOR "Cadence Design Systems, Inc."
*PROGRAM "Innovus"
*VERSION "15.28-s017_1"
*DESIGN_FLOW "PIN_CAP NONE" "NAME_SCOPE LOCAL"
*DIVIDER /
*DELIMITER :
*BUS_DELIMITER []
*T_UNIT 1 NS
*C_UNIT 1 PF
*R_UNIT 1 OHM
*L_UNIT 1 HENRY

// MMMC spef file for corner 'ams_rc_corner_typ'

*NAME_MAP

*1 clk
*2 comp
*3 resetn
*4 out[4]
*5 out[3]
*6 out[2]
*7 out[1]
*8 out[0]
*9 counter[2]
*10 counter[1]
*11 counter[0]
*12 dac_out[4]
*13 dac_out[3]
*14 dac_out[2]
*15 dac_out[1]
*16 dac_out[0]
*17 UNCONNECTED
*18 n_0
*19 n_1
*20 n_2
*21 n_3
*22 n_4
*23 n_5
*24 n_6
*25 n_7
*26 n_8
*27 n_9
*28 n_10
*29 n_12
*30 n_13
*31 n_15
*32 n_16
*33 n_18
*34 n_20
*35 n_21
*36 n_22
*37 n_23
*38 n_24
*39 n_26
*40 n_27
*41 n_28
*42 n_29
*43 n_30
*44 n_31
*45 n_32
*46 n_33
*47 n_34
*48 n_39
*49 counter_reg\[2\]
*50 counter_reg\[0\]
*51 counter_reg\[1\]
*52 dac_out_reg\[2\]
*53 dac_out_reg\[4\]
*54 dac_out_reg\[3\]
*55 g593
*56 g594
*57 dac_out_reg\[0\]
*58 g597
*59 g599
*60 g600
*61 dac_out_reg\[1\]
*62 g598
*63 g606
*64 g605
*65 g609
*66 g596
*67 g604
*68 g602
*69 g603
*70 g610
*71 g611
*72 g613
*73 g612
*74 g607
*75 g608
*76 g614
*77 g615
*78 g617
*79 g616
*80 g619
*81 g620
*82 g618
*83 g624
*84 g2


*PORTS

*1 I *C 0 65.8
*2 I *C 70.84 130.64
*3 I *C 70.84 130.64
*4 O *C 0 68.6
*5 O *C 66.92 130.64
*6 O *C 68.6 0
*7 O *C 64.12 0
*8 O *C 0 58.52


*D_NET *1 0.015013

*CONN
*P *1 I *C 0 65.8 *L 0
*I *61:CP I *C 50.68 52.92 *L 0.00194 *D DFCX1
*I *57:CP I *C 50.68 63 *L 0.00194 *D DFCX1
*I *54:CP I *C 73.08 78.12 *L 0.00194 *D DFCX1
*I *53:CP I *C 50.68 73.08 *L 0.00194 *D DFCX1
*I *52:CP I *C 73.08 52.92 *L 0.00194 *D DFCX1
*I *51:CP I *C 73.08 57.96 *L 0.00194 *D DFCX1
*I *50:CP I *C 73.08 68.6 *L 0.00196 *D DFPX3
*I *49:CP I *C 51.24 78.68 *L 0.00196 *D DFPX3

*CAP
1 *1 0.00448116
2 *57:CP 7.79185e-05
3 *53:CP 7.79185e-05
4 *50:CP 0.00145444
5 *49:CP 0.000116834
6 *1:9 6.12466e-05
7 *1:10 0.000310572
8 *1:11 0.000148259
9 *1:12 0.000852989
10 *1:13 0.000982438
11 *1:14 9.3684e-05
12 *1:15 0.000993937
13 *1:16 0.00239359
14 *1:17 0.00058826
15 *1:18 0.000322216
16 *1:19 0.00205757

*RES
1 *1:12 *1:18 0.987386
2 *1:15 *1:19 9.28348
3 *1:20 *1:13 0.188821
4 *50:CP *1:14 4.67008
5 *1:9 *1:14 0.188821
6 *1:16 *1:17 1.98559
7 *1:10 *1:20 0.393233
8 *49:CP *1:16 1.91055
9 *1:9 *1:16 10.7701
10 *1:10 *1:11 0.343962
11 *1:13 *1:18 3.18821
12 *51:CP *1:15 4.37077
13 *1 *1:12 18.761
14 *1:12 *1:17 2.58452
15 *1:19 *1:10 1.287
16 *1:14 *54:CP 1.287
17 *1:15 *52:CP 1.287
18 *1:10 *61:CP 1.287
19 *1:17 *53:CP 1.287
20 *1:18 *57:CP 1.287
*END

*D_NET *33 0.00182284

*CONN
*I *75:Q O *C 69.86 57.82 *L 0 *D NAND2XL
*I *68:A I *C 68.74 53.62 *L 0.00341 *D NAND2X3
*I *58:A1 I *C 70.83 53.12 *L 0.00338 *D OAI21X3

*CAP
1 *68:A 0.000130686
2 *33:3 0.000680364
3 *33:4 0.00067885
4 *33:5 0.000332942

*RES
1 *75:Q *33:4 2.09034
2 *58:A1 *33:3 1.48123
3 *33:3 *33:6 0.797287
4 *33:4 *33:5 0.388462
5 *33:6 *33:4 0.787745
6 *33:5 *68:A 1.287
*END

*D_NET *2 0.00866704

*CONN
*P *2 I *C 70.84 130.64 *L 0
*I *83:A I *C 68.6 66.92 *L 0.00136 *D INVXL
*I *59:A3 I *C 73.08 72.52 *L 0.00307 *D AO32X3

*CAP
1 *2 0.00625306
2 *83:A 0.00106619
3 *59:A3 0.000124677
4 *2:3 0.00018436
5 *2:4 0.00019991
6 *2:5 0.000258914
7 *2:6 0.000579928

*RES
1 *83:A *2:5 3.29423
2 *59:A3 *2:7 0.200641
3 *2:3 *2:4 0.338677
4 *2:8 *2:6 1.00362
5 *2 *2:6 22.9
6 *2:5 *2:6 2.07474
7 *2:8 *2:3 1.287
8 *2:3 *2:7 2.574
*END

*D_NET *18 0.00142554

*CONN
*I *73:B I *C 59.08 68.04 *L 0.00373 *D NAND2X3
*I *53:QN O *C 62.81 72.78 *L 0 *D DFCX1

*CAP
1 *73:B 7.74529e-05
2 *18:2 0.00063133
3 *18:3 0.000479592
4 *18:4 0.000237169

*RES
1 *73:B *18:4 0.299164
2 *53:QN *18:2 3.97149
3 *18:2 *18:3 1.84543
4 *18:3 *18:4 0.613129
*END

*D_NET *34 0.00207398

*CONN
*I *67:Q O *C 64.31 68.94 *L 0 *D OAI31X2
*I *62:B1 I *C 54.73 67.39 *L 0.00381 *D OAI21X3

*CAP
1 *62:B1 0.000201829
2 *34:2 0.000155218
3 *34:3 0.00022353
4 *34:4 0.000845482
5 *34:5 0.000141612
6 *34:6 0.000506307

*RES
1 *62:B1 *34:4 2.21812
2 *34:4 *34:7 3.6827
3 *34:2 *34:3 0.343962
4 *34:4 *34:5 0.343962
5 *34:6 *34:8 0.992796
6 *34:6 *34:7 0.198363
7 *34:8 *34:2 1.287
8 *34:2 *67:Q 1.287
*END

*D_NET *3 0.0141688

*CONN
*P *3 I *C 70.84 130.64 *L 0
*I *61:RN I *C 59.78 53.62 *L 0.00444 *D DFCX1
*I *57:RN I *C 59.78 63.7 *L 0.00444 *D DFCX1
*I *54:RN I *C 82.18 77.42 *L 0.00444 *D DFCX1
*I *53:RN I *C 59.78 73.78 *L 0.00444 *D DFCX1
*I *52:RN I *C 82.18 53.62 *L 0.00444 *D DFCX1
*I *51:RN I *C 82.18 57.26 *L 0.00444 *D DFCX1
*I *50:SN I *C 81.01 67.49 *L 0.00389 *D DFPX3
*I *49:SN I *C 59.17 77.57 *L 0.00389 *D DFPX3

*CAP
1 *3 0.00442239
2 *61:RN 0.00176511
3 *52:RN 0.000619488
4 *3:9 0.000191804
5 *3:10 0.00102837
6 *3:11 0.000983753
7 *3:12 0.000670672
8 *3:13 0.00113564
9 *3:14 0.000806808
10 *3:15 0.000509104
11 *3:16 0.000212426
12 *3:17 0.0011262
13 *3:18 0.000198301
14 *3:19 0.000425093
15 *3:20 7.36349e-05

*RES
1 *3:21 *3:19 1.58631
2 *3:9 *3:10 2.98857
3 *3:11 *3:16 2.19001
4 *3:19 *3:20 0.198363
5 *49:SN *3:12 3.97626
6 *3:12 *3:13 1.58631
7 *3:10 *3:16 0.598924
8 *61:RN *3:22 6.17231
9 *3:13 *3:14 1.99036
10 *53:RN *3:12 2.77364
11 *3:23 *3:11 0.388462
12 *3:14 *3:22 0.188821
13 *3:10 *3:17 5.09101
14 *3:18 *3:21 0.198363
15 *3:23 *3:15 1.40226
16 *54:RN *3:9 2.97328
17 *3:17 *3:18 0.588103
18 *3:13 *3:20 3.08377
19 *3 *3:17 22.8001
20 *52:RN *3:15 3.97149
21 *3:15 *51:RN 2.574
22 *3:16 *50:SN 2.574
23 *3:22 *57:RN 2.574
*END

*D_NET *19 0.00227098

*CONN
*I *69:B I *C 53.48 57.96 *L 0.00373 *D NAND2X3
*I *57:QN O *C 62.81 62.7 *L 0 *D DFCX1

*CAP
1 *69:B 0.000460073
2 *19:2 0.000646112
3 *19:3 0.00116479

*RES
1 *69:B *19:3 2.07474
2 *57:QN *19:2 2.28521
3 *19:2 *19:3 5.97872
*END

*D_NET *35 0.00142111

*CONN
*I *66:Q O *C 55.02 57.26 *L 0 *D OAI21X3
*I *57:D I *C 52.92 63 *L 0.00187 *D DFCX1

*CAP
1 *57:D 0.000482104
2 *35:2 0.000939007

*RES
1 *57:D *35:3 2.27439
2 *35:2 *35:3 1.99036
3 *35:2 *66:Q 1.287
*END

*D_NET *4 0.00551353

*CONN
*P *4 O *C 0 68.6 *L 0
*I *73:Q O *C 58.45 68.46 *L 0 *D NAND2X3

*CAP
1 *4 0.0051296
2 *4:2 0.00018033
3 *4:3 0.000203597

*RES
1 *4 *4:4 20.269
2 *4:2 *4:3 0.343962
3 *4:4 *4:2 1.287
4 *4:2 *73:Q 1.287
*END

*D_NET *20 0.00213896

*CONN
*I *68:B I *C 69.16 52.92 *L 0.00373 *D NAND2X3
*I *52:QN O *C 85.21 52.62 *L 0 *D DFCX1

*CAP
1 *68:B 0.000260581
2 *20:2 0.000303772
3 *20:3 0.00157461

*RES
1 *68:B *20:3 1.67546
2 *52:QN *20:2 1.68628
3 *20:2 *20:3 8.37442
*END

*D_NET *36 0.00231141

*CONN
*I *72:Q O *C 81.26 74.42 *L 0 *D INVXL
*I *65:A I *C 71.1 73.93 *L 0.0012 *D NOR2XL
*I *59:B1 I *C 75.32 73.08 *L 0.00268 *D AO32X3

*CAP
1 *72:Q 0.000550487
2 *36:3 0.000531
3 *36:4 0.000267804
4 *36:5 0.000225079
5 *36:6 8.76676e-05
6 *36:7 0.000649374

*RES
1 *36:8 *36:3 1.68087
2 *36:4 *36:5 0.449193
3 *36:6 *36:7 1.39749
4 *72:Q *36:8 2.77656
5 *36:6 *36:3 1.287
6 *36:7 *36:4 1.287
7 *36:4 *65:A 1.287
8 *36:3 *59:B1 2.574
*END

*D_NET *5 0.00467299

*CONN
*P *5 O *C 66.92 130.64 *L 0
*I *63:Q O *C 67.13 78.62 *L 0 *D AO21X3

*CAP
1 *5 0.00467299

*RES
1 *5 *63:Q 19.2174
*END

*D_NET *21 0.00274501

*CONN
*I *81:A I *C 71.66 63.85 *L 0.0012 *D NOR2XL
*I *76:A I *C 82.74 62.58 *L 0.00444 *D HAX3
*I *50:QN O *C 85.02 66.38 *L 0 *D DFPX3

*CAP
1 *76:A 0.000208851
2 *50:QN 0.000135219
3 *21:3 0.000579425
4 *21:4 0.000170007
5 *21:5 0.000268555
6 *21:6 0.000148991
7 *21:7 0.000970364
8 *21:8 0.000263599

*RES
1 *76:A *21:4 1.68628
2 *21:5 *21:6 0.449193
3 *21:7 *21:8 3.58813
4 *50:QN *21:3 2.87331
5 *21:3 *21:8 2.49567
6 *21:7 *21:5 1.287
7 *21:8 *21:4 1.287
8 *21:5 *81:A 1.287
*END

*D_NET *37 0.00134039

*CONN
*I *76:SUM O *C 77.73 64.68 *L 0 *D HAX3
*I *64:A1 I *C 71.39 57.76 *L 0.00338 *D OAI21X3
*I *56:B I *C 73.64 64.12 *L 0.00141 *D NOR2XL

*CAP
1 *64:A1 0.000347468
2 *56:B 0.000443923
3 *37:3 0.000444421
4 *37:4 0.000104576

*RES
1 *64:A1 *37:4 3.37734
2 *56:B *76:SUM 2.153
3 *56:B *37:3 2.28998
4 *37:3 *37:4 0.388462
*END

*D_NET *6 0.00499844

*CONN
*P *6 O *C 68.6 0 *L 0
*I *68:Q O *C 68.53 52.5 *L 0 *D NAND2X3

*CAP
1 *6 0.00260026
2 *68:Q 0.000199265
3 *6:2 0.00219891

*RES
1 *68:Q *6:2 9.86553
2 *6 *6:3 9.68197
3 *6:3 *6:2 0.188821
*END

*D_NET *22 0.000908823

*CONN
*I *84:A2 I *C 64.12 77.56 *L 0.00252 *D OAI21X2
*I *80:A I *C 65.54 73.93 *L 0.0012 *D NOR2XL
*I *49:QN O *C 63.18 76.46 *L 0 *D DFPX3

*CAP
1 *84:A2 7.08373e-05
2 *80:A 0.000123243
3 *49:QN 6.70445e-05
4 *22:3 0.000647698

*RES
1 *80:A *22:3 0.623552
2 *49:QN *84:A2 0.299164
3 *22:3 *22:4 2.67908
4 *22:4 *84:A2 1.287
*END

*D_NET *38 0.00113089

*CONN
*I *64:Q O *C 70.7 57.26 *L 0 *D OAI21X3
*I *58:B1 I *C 71.53 53.57 *L 0.00381 *D OAI21X3

*CAP
1 *58:B1 0.000573409
2 *38:2 0.000557477

*RES
1 *58:B1 *38:3 1.87987
2 *64:Q *38:2 2.09034
3 *38:3 *38:2 0.388462
*END

*D_NET *7 0.00502625

*CONN
*P *7 O *C 64.12 0 *L 0
*I *71:Q O *C 64.19 52.5 *L 0 *D NAND2X3

*CAP
1 *7 0.00266076
2 *71:Q 0.000174813
3 *7:2 0.00212189
4 *7:3 6.87842e-05

*RES
1 *71:Q *7:2 9.66589
2 *7 *7:3 9.88161
3 *7:2 *7:3 0.188821
*END

*D_NET *23 0.000642803

*CONN
*I *80:Q O *C 65.98 74.12 *L 0 *D NOR2XL
*I *67:A2 I *C 65.24 68.04 *L 0.00237 *D OAI31X2

*CAP
1 *80:Q 0.00015335
2 *67:A2 0.000489453

*RES
1 *80:Q *67:A2 3.77185
*END

*D_NET *39 0.00710063

*CONN
*I *83:Q O *C 68.26 66.7 *L 0 *D INVXL
*I *70:A2 I *C 65.8 57.96 *L 0.00358 *D OAI22X3
*I *66:A2 I *C 54.6 57.96 *L 0.00348 *D OAI21X3
*I *62:A2 I *C 52.92 68.04 *L 0.00348 *D OAI21X3
*I *58:A2 I *C 69.72 52.92 *L 0.00348 *D OAI21X3

*CAP
1 *66:A2 0.000235903
2 *62:A2 0.000102194
3 *39:5 0.000419409
4 *39:6 0.000273517
5 *39:7 0.000295851
6 *39:8 0.000260695
7 *39:9 0.000196241
8 *39:10 0.000639879
9 *39:11 0.000950098
10 *39:12 0.000145454
11 *39:13 0.000367699
12 *39:14 0.000778742
13 *39:15 0.00117307
14 *39:16 0.000122244
15 *39:17 7.3712e-05
16 *39:18 0.00106592

*RES
1 *39:11 *39:12 2.19
2 *39:13 *39:17 0.798565
3 *39:10 *39:19 1.68628
4 *39:13 *39:18 4.86972
5 *39:6 *39:7 0.499103
6 *39:14 *39:16 1.39749
7 *39:10 *39:20 1.1918
8 *39:15 *39:21 3.59354
9 *39:14 *39:18 2.67367
10 *66:A2 *39:10 1.48123
11 *39:20 *39:11 0.787745
12 *39:15 *39:19 0.198363
13 *39:8 *39:9 0.343962
14 *39:18 *39:21 1.287
15 *39:16 *39:5 1.287
16 *39:17 *39:6 1.287
17 *39:21 *39:8 1.287
18 *39:5 *58:A2 1.287
19 *39:6 *83:Q 1.287
20 *39:8 *70:A2 1.287
21 *39:12 *62:A2 1.287
*END

*D_NET *8 0.00487971

*CONN
*P *8 O *C 0 58.52 *L 0
*I *69:Q O *C 52.85 58.38 *L 0 *D NAND2X3

*CAP
1 *8 0.00447651
2 *8:2 0.000244921
3 *8:3 0.000158279

*RES
1 *8 *8:4 18.2726
2 *8:2 *8:3 0.343962
3 *8:4 *8:2 1.287
4 *8:2 *69:Q 1.287
*END

*D_NET *24 0.00256972

*CONN
*I *79:Q O *C 65.38 63.7 *L 0 *D OAI21X3
*I *66:B1 I *C 56.41 57.31 *L 0.00381 *D OAI21X3

*CAP
1 *66:B1 0.000226135
2 *24:2 0.000881993
3 *24:3 0.00017308
4 *24:4 0.000234308
5 *24:5 0.0010542

*RES
1 *24:5 *24:6 3.69352
2 *66:B1 *24:2 0.931124
3 *24:3 *24:4 0.343962
4 *24:2 *24:5 3.47223
5 *24:6 *24:3 1.287
6 *24:3 *79:Q 1.287
*END

*D_NET *40 0.000976399

*CONN
*I *62:Q O *C 53.34 67.34 *L 0 *D OAI21X3
*I *53:D I *C 52.92 73.08 *L 0.00187 *D DFCX1

*CAP
1 *62:Q 0.000461426
2 *40:2 0.000514973

*RES
1 *62:Q *40:3 2.07952
2 *53:D *40:2 2.48962
3 *40:3 *40:2 0.188821
*END

*D_NET *9 0.00867154

*CONN
*I *82:A I *C 69.98 63.85 *L 0.0012 *D NOR2XL
*I *81:B I *C 70.84 64.12 *L 0.00141 *D NOR2XL
*I *79:A1 I *C 64.69 63.2 *L 0.00338 *D OAI21X3
*I *78:A I *C 68.04 63 *L 0.00335 *D NAND3X3
*I *65:B I *C 70.28 74.2 *L 0.00141 *D NOR2XL
*I *64:A2 I *C 70.28 57.96 *L 0.00348 *D OAI21X3
*I *63:A2 I *C 69.53 77.42 *L 0.00199 *D AO21X3
*I *59:A2 I *C 73.64 73.08 *L 0.00285 *D AO32X3
*I *49:Q O *C 61.88 77.56 *L 0 *D DFPX3

*CAP
1 *81:B 6.07006e-05
2 *9:9 0.000276179
3 *9:10 0.000132258
4 *9:11 0.000870558
5 *9:12 0.000287091
6 *9:13 0.00127325
7 *9:14 6.87842e-05
8 *9:15 0.000155757
9 *9:16 0.000875657
10 *9:17 0.000139171
11 *9:18 0.000173904
12 *9:19 0.000240211
13 *9:20 0.000174172
14 *9:21 0.000918282
15 *9:22 4.78318e-05
16 *9:23 0.000158104
17 *9:24 0.000222341
18 *9:25 0.000161332
19 *9:26 0.000312832
20 *9:27 0.000904791
21 *9:28 0.000164077
22 *9:29 0.000232097
23 *9:30 0.000822156

*RES
1 *9:14 *9:26 0.592874
2 *9:19 *9:20 0.449193
3 *9:31 *9:12 0.188821
4 *9:9 *9:32 0.214624
5 *9:31 *9:13 2.39442
6 *9:21 *9:29 2.88413
7 *9:15 *9:26 0.188821
8 *9:21 *9:22 0.188821
9 *9:11 *9:12 0.698105
10 *9:15 *9:16 0.144321
11 *9:10 *9:28 1.68628
12 *9:22 *9:23 0.155141
13 *64:A2 *9:16 2.93404
14 *9:10 *9:11 1.29767
15 *9:33 *9:29 0.809386
16 *9:13 *9:14 0.188821
17 *9:17 *9:18 0.343962
18 *9:28 *9:30 2.59534
19 *9:27 *9:34 1.39749
20 *9:24 *9:25 0.449193
21 *9:27 *9:11 1.287
22 *9:33 *9:15 1.287
23 *9:28 *9:17 1.287
24 *9:29 *9:19 1.287
25 *9:30 *9:24 1.287
26 *9:34 *9:32 2.574
27 *9:11 *65:B 1.287
28 *9:19 *78:A 1.287
29 *9:24 *49:Q 1.287
30 *9:26 *81:B 1.287
31 *9:17 *63:A2 1.287
32 *9:32 *59:A2 2.574
33 *9:22 *79:A1 2.574
34 *81:B *82:A 1e-06
*END

*D_NET *25 0.00308

*CONN
*I *82:Q O *C 69.54 64.04 *L 0 *D NOR2XL
*I *77:A I *C 68.04 57.96 *L 0.00143 *D NAND2XL
*I *70:B1 I *C 63.42 58.38 *L 0.00351 *D OAI22X3

*CAP
1 *77:A 0.000598121
2 *70:B1 0.00022842
3 *25:3 0.00038212
4 *25:4 0.000215713
5 *25:5 0.000292253
6 *25:6 0.000171549
7 *25:7 0.000285819
8 *25:8 0.000740809
9 *25:9 0.000165198

*RES
1 *77:A *25:7 2.48485
2 *70:B1 *25:4 0.614137
3 *25:9 *25:10 0.598924
4 *25:3 *25:4 0.615144
5 *25:5 *25:6 0.449193
6 *25:7 *25:9 1.47523
7 *25:8 *25:9 2.48485
8 *25:3 *25:8 2.07474
9 *25:10 *25:5 1.287
10 *25:5 *82:Q 1.287
*END

*D_NET *41 0.00206175

*CONN
*I *65:Q O *C 70.66 74.12 *L 0 *D NOR2XL
*I *60:A I *C 69.72 74.2 *L 0.00136 *D INVXL
*I *56:A I *C 72.82 63.85 *L 0.0012 *D NOR2XL

*CAP
1 *65:Q 0.000331218
2 *60:A 0.000297119
3 *56:A 0.000441854
4 *41:3 0.000991559

*RES
1 *65:Q *41:3 3.07772
2 *56:A *41:4 2.28998
3 *41:4 *41:3 0.388462
4 *60:A *41:5 0.921708
5 *65:Q *41:5 0.606736
*END

*D_NET *10 0.00491087

*CONN
*I *79:A2 I *C 65.8 63 *L 0.00348 *D OAI21X3
*I *77:B I *C 66.92 57.4 *L 0.00151 *D NAND2XL
*I *75:B I *C 69.72 57.4 *L 0.00151 *D NAND2XL
*I *67:A3 I *C 65.66 68.46 *L 0.00262 *D OAI31X2
*I *51:Q O *C 83.02 56.14 *L 0 *D DFCX1

*CAP
1 *10:5 0.000282635
2 *10:6 0.000307084
3 *10:7 0.000559715
4 *10:8 0.000458022
5 *10:9 0.000949029
6 *10:10 0.000980623
7 *10:11 0.000161814
8 *10:12 7.76727e-05
9 *10:13 0.00102616
10 *10:14 0.000108119

*RES
1 *10:11 *10:14 0.588103
2 *10:5 *10:6 0.499103
3 *10:15 *10:10 1.1918
4 *10:8 *10:9 0.792516
5 *10:11 *10:12 0.198363
6 *10:16 *10:10 0.989772
7 *10:12 *10:13 3.58272
8 *10:7 *10:16 0.393233
9 *10:15 *10:8 0.388462
10 *10:13 *10:17 0.198363
11 *67:A3 *10:9 3.29423
12 *10:7 *10:17 1.88592
13 *10:14 *10:5 1.287
14 *10:16 *75:B 1.287
15 *10:9 *79:A2 1.287
16 *10:10 *77:B 1.287
17 *10:5 *51:Q 2.574
*END

*D_NET *26 0.00556662

*CONN
*I *78:C I *C 66.36 63 *L 0.00393 *D NAND3X3
*I *76:B I *C 82.26 63.14 *L 0.00476 *D HAX3
*I *74:B I *C 59.64 57.4 *L 0.00151 *D NAND2XL
*I *51:QN O *C 85.21 58.26 *L 0 *D DFCX1

*CAP
1 *78:C 0.00020448
2 *76:B 0.000193429
3 *74:B 0.000915715
4 *51:QN 0.000332391
5 *26:4 0.000150001
6 *26:5 0.00109073
7 *26:6 0.00145781
8 *26:7 0.000350934
9 *26:8 0.000871132

*RES
1 *76:B *26:8 3.36174
2 *26:4 *26:8 2.89495
3 *51:QN *26:4 2.28521
4 *26:6 *26:8 4.98021
5 *26:6 *26:7 0.193592
6 *78:C *26:7 3.1621
7 *26:5 *26:7 3.8739
8 *74:B *26:5 2.68449
*END

*D_NET *42 0.00631904

*CONN
*I *84:A1 I *C 65.23 78.25 *L 0.00232 *D OAI21X2
*I *76:CO O *C 79.38 63.14 *L 0 *D HAX3
*I *72:A I *C 80.92 74.2 *L 0.00136 *D INVXL
*I *63:A1 I *C 68.6 78.12 *L 0.00199 *D AO21X3
*I *59:A1 I *C 74.91 72.66 *L 0.00285 *D AO32X3

*CAP
1 *84:A1 0.000479419
2 *76:CO 0.00110341
3 *72:A 0.00077795
4 *42:5 0.000149031
5 *42:6 0.000214639
6 *42:7 0.000198446
7 *42:8 0.000745481
8 *42:9 0.00149236
9 *42:10 0.00040536
10 *42:11 0.000513444
11 *42:12 0.000239503

*RES
1 *42:8 *42:10 0.588103
2 *42:7 *42:10 0.603695
3 *42:6 *42:11 0.987386
4 *76:CO *42:5 4.07116
5 *42:6 *42:9 6.46175
6 *72:A *42:11 4.05515
7 *84:A1 *42:13 3.57221
8 *42:13 *42:12 0.193592
9 *42:5 *42:8 4.18195
10 *42:7 *42:11 0.393233
11 *42:9 *42:12 0.399283
12 *42:10 *59:A1 1.287
13 *42:12 *63:A1 1.287
*END

*D_NET *11 0.00439232

*CONN
*I *82:B I *C 69.16 64.12 *L 0.00141 *D NOR2XL
*I *80:B I *C 66.36 74.2 *L 0.00141 *D NOR2XL
*I *78:B I *C 67.34 63.7 *L 0.00355 *D NAND3X3
*I *55:B I *C 70.28 67.48 *L 0.00151 *D NAND2XL
*I *50:Q O *C 83.72 67.48 *L 0 *D DFPX3

*CAP
1 *82:B 0.00036355
2 *80:B 0.000174342
3 *78:B 0.00034481
4 *11:5 9.63099e-05
5 *11:6 0.000222388
6 *11:7 0.000161332
7 *11:8 0.000375124
8 *11:9 8.70953e-05
9 *11:10 0.0012003
10 *11:11 0.00136707

*RES
1 *11:8 *11:11 0.603695
2 *11:8 *11:9 0.388462
3 *80:B *11:5 0.615144
4 *11:11 *11:12 6.07839
5 *82:B *11:9 1.88534
6 *78:B *11:10 2.08557
7 *11:6 *11:7 0.449193
8 *11:9 *11:10 0.588103
9 *11:5 *11:10 3.87629
10 *11:12 *11:6 1.287
11 *11:11 *55:B 1.287
12 *11:6 *50:Q 1.287
*END

*D_NET *27 0.00481873

*CONN
*I *81:Q O *C 71.22 64.04 *L 0 *D NOR2XL
*I *75:A I *C 68.6 57.96 *L 0.00143 *D NAND2XL
*I *74:A I *C 60.76 57.96 *L 0.00143 *D NAND2XL
*I *67:A1 I *C 64.68 68.6 *L 0.00237 *D OAI31X2

*CAP
1 *81:Q 0.000174344
2 *75:A 0.000355999
3 *74:A 0.000249077
4 *67:A1 0.000408471
5 *27:4 0.000137295
6 *27:5 0.000350793
7 *27:6 0.000372735
8 *27:7 0.000101454
9 *27:8 0.00191144
10 *27:9 0.000159635
11 *27:10 0.000107973
12 *27:11 0.000489516

*RES
1 *74:A *27:8 1.68628
2 *27:7 *27:8 2.38965
3 *81:Q *27:5 1.8751
4 *27:5 *27:11 2.29603
5 *27:6 *27:7 0.388462
6 *27:9 *27:11 0.588103
7 *27:8 *27:10 3.48305
8 *27:4 *27:6 2.27916
9 *27:9 *27:10 0.198363
10 *67:A1 *27:4 1.54627
11 *75:A *27:11 3.17292
*END

*D_NET *43 0.00179966

*CONN
*I *59:Q O *C 72.66 74.9 *L 0 *D AO32X3
*I *54:D I *C 75.32 78.12 *L 0.00187 *D DFCX1

*CAP
1 *43:2 0.000894249
2 *43:3 0.000208793
3 *43:4 0.000213683
4 *43:5 0.000482934

*RES
1 *54:D *43:2 2.47944
2 *43:3 *43:4 0.343962
3 *43:2 *43:5 2.29062
4 *43:5 *43:3 1.287
5 *43:3 *59:Q 1.287
*END

*D_NET *12 0.00159491

*CONN
*I *67:B1 I *C 63.56 67.48 *L 0.00265 *D OAI31X2
*I *53:Q O *C 60.62 74.9 *L 0 *D DFCX1

*CAP
1 *67:B1 0.00033367
2 *53:Q 0.000182632
3 *12:2 0.000899046
4 *12:3 0.000179564

*RES
1 *67:B1 *12:3 1.52945
2 *53:Q *12:2 4.9697
3 *12:2 *12:3 0.306565
*END

*D_NET *28 0.0030545

*CONN
*I *78:Q O *C 67.03 62.6 *L 0 *D NAND3X3
*I *73:A I *C 58.66 67.34 *L 0.00341 *D NAND2X3
*I *62:A1 I *C 54.03 67.84 *L 0.00338 *D OAI21X3

*CAP
1 *78:Q 0.000259381
2 *62:A1 0.00020455
3 *28:3 0.000274657
4 *28:4 0.000201429
5 *28:5 0.00149283
6 *28:6 0.000169907
7 *28:7 0.000451747

*RES
1 *28:3 *28:6 1.68023
2 *28:8 *28:6 0.588103
3 *78:Q *28:4 1.68628
4 *28:5 *28:7 0.793155
5 *28:4 *28:5 6.17836
6 *62:A1 *28:3 0.931124
7 *28:8 *28:7 0.797926
8 *28:7 *73:A 1.287
*END

*D_NET *44 0.00152752

*CONN
*I *58:Q O *C 70.14 53.62 *L 0 *D OAI21X3
*I *52:D I *C 75.32 52.92 *L 0.00187 *D DFCX1

*CAP
1 *52:D 0.000248069
2 *44:2 0.000148695
3 *44:3 0.000380047
4 *44:4 0.000106164
5 *44:5 0.000644541

*RES
1 *52:D *44:2 1.68087
2 *44:3 *44:4 0.249552
3 *44:2 *44:5 3.09459
4 *44:5 *44:3 1.287
5 *44:3 *58:Q 1.287
*END

*D_NET *13 0.00358796

*CONN
*I *63:B1 I *C 68.04 78.12 *L 0.00241 *D AO21X3
*I *59:B2 I *C 76.44 73.64 *L 0.00284 *D AO32X3
*I *54:Q O *C 83.02 76.3 *L 0 *D DFCX1

*CAP
1 *59:B2 0.00061076
2 *13:3 0.000227403
3 *13:4 0.000163027
4 *13:5 0.000759497
5 *13:6 0.000225114
6 *13:7 0.000104456
7 *13:8 0.000722983
8 *13:9 0.000774717

*RES
1 *13:5 *13:10 1.88592
2 *63:B1 *13:5 3.17292
3 *13:6 *13:7 0.198363
4 *13:6 *13:9 0.588103
5 *13:3 *13:4 0.343962
6 *59:B2 *13:9 3.56139
7 *13:7 *13:8 1.78595
8 *13:8 *13:10 0.198363
9 *13:11 *13:9 2.40652
10 *13:11 *13:3 1.287
11 *13:3 *54:Q 1.287
*END

*D_NET *29 0.000815164

*CONN
*I *71:B I *C 63.56 52.92 *L 0.00373 *D NAND2X3
*I *70:B2 I *C 63 57.96 *L 0.00386 *D OAI22X3
*I *61:QN O *C 62.81 52.62 *L 0 *D DFCX1

*CAP
1 *70:B2 0.0001844
2 *61:QN 0.000630764

*RES
1 *61:QN *71:B 0.307572
2 *70:B2 *61:QN 3.97149
*END

*D_NET *45 0.000950025

*CONN
*I *56:Q O *C 73.26 64.04 *L 0 *D NOR2XL
*I *51:D I *C 75.32 57.96 *L 0.00187 *D DFCX1

*CAP
1 *56:Q 0.000272092
2 *51:D 0.000568469
3 *45:2 0.000109464

*RES
1 *56:Q *45:2 1.2387
2 *51:D *45:2 4.17113
*END

*D_NET *14 0.00227481

*CONN
*I *64:B1 I *C 72.09 57.31 *L 0.00381 *D OAI21X3
*I *52:Q O *C 83.02 54.74 *L 0 *D DFCX1

*CAP
1 *52:Q 0.000642299
2 *14:2 8.78774e-05
3 *14:3 0.000182092
4 *14:4 0.000202295
5 *14:5 0.00116025

*RES
1 *52:Q *14:2 2.28521
2 *14:3 *14:4 0.343962
3 *14:2 *14:5 5.27442
4 *14:5 *14:3 1.287
5 *14:3 *64:B1 1.287
*END

*D_NET *30 0.00151951

*CONN
*I *77:Q O *C 66.78 57.82 *L 0 *D NAND2XL
*I *71:A I *C 63.98 53.62 *L 0.00341 *D NAND2X3
*I *70:A1 I *C 64.68 57.96 *L 0.00328 *D OAI22X3

*CAP
1 *71:A 0.000336074
2 *30:3 0.000238028
3 *30:4 0.000142476
4 *30:5 0.000802934

*RES
1 *70:A1 *30:4 2.77364
2 *71:A *30:5 2.08557
3 *77:Q *30:3 1.69105
4 *30:4 *30:5 0.797287
5 *30:3 *30:5 1.18703
*END

*D_NET *46 0.00099008

*CONN
*I *55:Q O *C 70.42 67.9 *L 0 *D NAND2XL
*I *50:D I *C 75.18 67.34 *L 0.00189 *D DFPX3

*CAP
1 *55:Q 0.000215128
2 *50:D 0.000162959
3 *46:2 0.000116607
4 *46:3 0.000495386

*RES
1 *55:Q *46:2 0.914307
2 *50:D *46:3 2.47403
3 *46:3 *46:2 1.287
*END

*D_NET *16 0.000753314

*CONN
*I *79:B1 I *C 63.99 63.65 *L 0.00381 *D OAI21X3
*I *57:Q O *C 60.62 64.82 *L 0 *D DFCX1

*CAP
1 *57:Q 0.000154045
2 *16:2 0.000599269

*RES
1 *57:Q *16:3 2.77364
2 *79:B1 *16:2 1.88051
3 *16:2 *16:3 0.398004
*END

*D_NET *32 0.00167084

*CONN
*I *74:Q O *C 59.5 57.82 *L 0 *D NAND2XL
*I *69:A I *C 53.06 57.26 *L 0.00341 *D NAND2X3
*I *66:A1 I *C 55.71 57.76 *L 0.00338 *D OAI21X3

*CAP
1 *74:Q 0.000415248
2 *69:A 0.000181008
3 *66:A1 0.000139811
4 *32:3 0.000170671
5 *32:4 0.000306778
6 *32:5 0.000457323

*RES
1 *66:A1 *32:4 2.07952
2 *66:A1 *74:Q 1.85384
3 *32:4 *32:5 0.987386
4 *32:3 *32:5 1.68023
5 *69:A *32:3 0.623552
*END

*D_NET *48 0.00199948

*CONN
*I *84:Q O *C 64.75 77.08 *L 0 *D OAI21X2
*I *49:D I *C 53.34 77.42 *L 0.00189 *D DFPX3

*CAP
1 *49:D 0.000317756
2 *48:2 0.000119337
3 *48:3 0.000159649
4 *48:4 4.83339e-05
5 *48:5 0.000342072
6 *48:6 0.000253039
7 *48:7 0.000687041
8 *48:8 7.22554e-05

*RES
1 *48:2 *48:6 1.88592
2 *48:5 *48:8 1.88592
3 *49:D *48:5 2.08557
4 *48:7 *48:8 0.198363
5 *48:2 *48:3 0.188821
6 *48:3 *48:4 0.144321
7 *48:9 *48:7 2.9838
8 *48:6 *48:9 0.198363
9 *48:3 *84:Q 1.287
*END

*D_NET *31 0.0023842

*CONN
*I *70:Q O *C 64.4 58.46 *L 0 *D OAI22X3
*I *61:D I *C 52.92 52.92 *L 0.00187 *D DFCX1

*CAP
1 *61:D 0.000461325
2 *31:2 0.000428179
3 *31:3 0.00128205
4 *31:4 0.000212648

*RES
1 *61:D *31:3 2.2798
2 *31:3 *31:4 5.67911
3 *31:4 *31:5 0.199002
4 *31:5 *31:2 1.287
5 *31:2 *70:Q 1.287
*END

*D_NET *47 0.00202855

*CONN
*I *84:B1 I *C 65.66 77.42 *L 0.00276 *D OAI21X2
*I *60:Q O *C 69.38 74.42 *L 0 *D INVXL
*I *55:A I *C 69.16 68.04 *L 0.00143 *D NAND2XL

*CAP
1 *84:B1 0.00019819
2 *60:Q 0.000208025
3 *55:A 0.000972607
4 *47:3 0.000307459
5 *47:4 0.000342273

*RES
1 *84:B1 *47:4 1.87987
2 *55:A *60:Q 4.38159
3 *47:3 *47:5 1.87987
4 *47:5 *47:4 0.588103
5 *60:Q *47:3 0.931124
*END

