*SPEF "IEEE 1481-1998"
*DESIGN "sar5"
*DATE "Wed Jul  5 17:34:59 2017"
*VENDOR "Cadence Design Systems, Inc."
*PROGRAM "Innovus"
*VERSION "15.28-s017_1"
*DESIGN_FLOW "PIN_CAP NONE" "NAME_SCOPE LOCAL"
*DIVIDER /
*DELIMITER :
*BUS_DELIMITER []
*T_UNIT 1 NS
*C_UNIT 1 PF
*R_UNIT 1 OHM
*L_UNIT 1 HENRY

// MMMC spef file for corner 'ams_rc_corner_minCaR2'

*NAME_MAP

*1 clk
*2 comp
*3 resetn
*4 out[4]
*5 out[3]
*6 out[2]
*7 out[1]
*8 out[0]
*9 counter[2]
*10 counter[1]
*11 counter[0]
*12 dac_out[4]
*13 dac_out[3]
*14 dac_out[2]
*15 dac_out[1]
*16 dac_out[0]
*17 UNCONNECTED
*18 n_0
*19 n_1
*20 n_2
*21 n_3
*22 n_4
*23 n_5
*24 n_6
*25 n_7
*26 n_8
*27 n_9
*28 n_10
*29 n_12
*30 n_13
*31 n_15
*32 n_16
*33 n_18
*34 n_20
*35 n_21
*36 n_22
*37 n_23
*38 n_24
*39 n_26
*40 n_27
*41 n_28
*42 n_29
*43 n_30
*44 n_31
*45 n_32
*46 n_33
*47 n_34
*48 n_39
*49 counter_reg\[2\]
*50 counter_reg\[0\]
*51 counter_reg\[1\]
*52 dac_out_reg\[2\]
*53 dac_out_reg\[4\]
*54 dac_out_reg\[3\]
*55 g593
*56 g594
*57 dac_out_reg\[0\]
*58 g597
*59 g599
*60 g600
*61 dac_out_reg\[1\]
*62 g598
*63 g606
*64 g605
*65 g609
*66 g596
*67 g604
*68 g602
*69 g603
*70 g610
*71 g611
*72 g613
*73 g612
*74 g607
*75 g608
*76 g614
*77 g615
*78 g617
*79 g616
*80 g619
*81 g620
*82 g618
*83 g624
*84 g2


*PORTS

*1 I *C 0 65.8
*2 I *C 70.84 130.64
*3 I *C 70.84 130.64
*4 O *C 0 68.6
*5 O *C 66.92 130.64
*6 O *C 68.6 0
*7 O *C 64.12 0
*8 O *C 0 58.52


*D_NET *2 0.00863061

*CONN
*P *2 I *C 70.84 130.64 *L 0
*I *83:A I *C 68.6 66.92 *L 0.00134 *D INVXL
*I *59:A3 I *C 73.08 72.52 *L 0.00323 *D AO32X3

*CAP
1 *2 0.00612451
2 *83:A 0.00112064
3 *59:A3 0.000133621
4 *2:3 0.000195479
5 *2:4 0.000201924
6 *2:5 0.000252339
7 *2:6 0.000602101

*RES
1 *83:A *2:5 2.24676
2 *59:A3 *2:7 0.227527
3 *2:3 *2:4 0.306974
4 *2:8 *2:6 0.921503
5 *2 *2:6 19.2427
6 *2:5 *2:6 1.09409
7 *2:8 *2:3 0.40375
8 *2:3 *2:7 0.8075
*END

*D_NET *18 0.00142746

*CONN
*I *73:B I *C 59.08 68.04 *L 0.00395 *D NAND2X3
*I *53:QN O *C 62.81 72.78 *L 0 *D DFCX1

*CAP
1 *73:B 7.90968e-05
2 *18:2 0.000617647
3 *18:3 0.000496692
4 *18:4 0.000234022

*RES
1 *73:B *18:4 0.295292
2 *53:QN *18:2 2.07417
3 *18:2 *18:3 1.93041
4 *18:3 *18:4 0.676658
*END

*D_NET *34 0.00207164

*CONN
*I *67:Q O *C 64.31 68.94 *L 0 *D OAI31X2
*I *62:B1 I *C 54.73 67.39 *L 0.00402 *D OAI21X3

*CAP
1 *62:B1 0.000205331
2 *34:2 0.000156351
3 *34:3 0.000224132
4 *34:4 0.000846327
5 *34:5 0.0001361
6 *34:6 0.000503396

*RES
1 *62:B1 *34:4 1.3954
2 *34:4 *34:7 2.57519
3 *34:2 *34:3 0.299929
4 *34:4 *34:5 0.299929
5 *34:6 *34:8 0.888026
6 *34:6 *34:7 0.203463
7 *34:8 *34:2 0.40375
8 *34:2 *67:Q 0.40375
*END

*D_NET *3 0.013876

*CONN
*P *3 I *C 70.84 130.64 *L 0
*I *61:RN I *C 59.78 53.62 *L 0.00457 *D DFCX1
*I *57:RN I *C 59.78 63.7 *L 0.00457 *D DFCX1
*I *54:RN I *C 82.18 77.42 *L 0.00457 *D DFCX1
*I *53:RN I *C 59.78 73.78 *L 0.00457 *D DFCX1
*I *52:RN I *C 82.18 53.62 *L 0.00457 *D DFCX1
*I *51:RN I *C 82.18 57.26 *L 0.00457 *D DFCX1
*I *50:SN I *C 81.01 67.49 *L 0.00406 *D DFPX3
*I *49:SN I *C 59.17 77.57 *L 0.00406 *D DFPX3

*CAP
1 *3 0.00432304
2 *61:RN 0.0017618
3 *52:RN 0.00062233
4 *3:9 0.000187541
5 *3:10 0.00097381
6 *3:11 0.000985008
7 *3:12 0.00064313
8 *3:13 0.00109757
9 *3:14 0.000800353
10 *3:15 0.000478369
11 *3:16 0.000195011
12 *3:17 0.00113258
13 *3:18 0.000185301
14 *3:19 0.000419539
15 *3:20 7.05938e-05

*RES
1 *3:21 *3:19 1.41415
2 *3:9 *3:10 2.70881
3 *3:11 *3:16 1.985
4 *3:19 *3:20 0.203463
5 *49:SN *3:12 2.10216
6 *3:12 *3:13 1.41415
7 *3:10 *3:16 0.542859
8 *61:RN *3:22 4.09264
9 *3:13 *3:14 1.80405
10 *53:RN *3:12 0.988453
11 *3:23 *3:11 0.328429
12 *3:14 *3:22 0.147476
13 *3:10 *3:17 3.87533
14 *3:18 *3:21 0.203463
15 *3:23 *3:15 1.29466
16 *54:RN *3:9 1.16941
17 *3:17 *3:18 0.509382
18 *3:13 *3:20 2.03233
19 *3 *3:17 19.8912
20 *52:RN *3:15 2.07417
21 *3:15 *51:RN 0.8075
22 *3:16 *50:SN 0.8075
23 *3:22 *57:RN 0.8075
*END

*D_NET *19 0.00228372

*CONN
*I *69:B I *C 53.48 57.96 *L 0.00395 *D NAND2X3
*I *57:QN O *C 62.81 62.7 *L 0 *D DFCX1

*CAP
1 *69:B 0.000461676
2 *19:2 0.000637132
3 *19:3 0.00118491

*RES
1 *69:B *19:3 1.09409
2 *57:QN *19:2 1.30851
3 *19:2 *19:3 3.91718
*END

*D_NET *35 0.00138086

*CONN
*I *66:Q O *C 55.02 57.26 *L 0 *D OAI21X3
*I *57:D I *C 52.92 63 *L 0.00193 *D DFCX1

*CAP
1 *57:D 0.000461877
2 *35:2 0.000918984

*RES
1 *57:D *35:3 1.27504
2 *35:2 *35:3 1.80405
3 *35:2 *66:Q 0.40375
*END

*D_NET *4 0.0054085

*CONN
*P *4 O *C 0 68.6 *L 0
*I *73:Q O *C 58.45 68.46 *L 0 *D NAND2X3

*CAP
1 *4 0.00501883
2 *4:2 0.000186482
3 *4:3 0.000203191

*RES
1 *4 *4:4 18.3835
2 *4:2 *4:3 0.299929
3 *4:4 *4:2 0.40375
4 *4:2 *73:Q 0.40375
*END

*D_NET *20 0.00213265

*CONN
*I *68:B I *C 69.16 52.92 *L 0.00395 *D NAND2X3
*I *52:QN O *C 85.21 52.62 *L 0 *D DFCX1

*CAP
1 *68:B 0.000260636
2 *20:2 0.00029669
3 *20:3 0.00157532

*RES
1 *68:B *20:3 0.732179
2 *52:QN *20:2 0.765656
3 *20:2 *20:3 6.08861
*END

*D_NET *36 0.00236566

*CONN
*I *72:Q O *C 81.26 74.42 *L 0 *D INVXL
*I *65:A I *C 71.1 73.93 *L 0.0012 *D NOR2XL
*I *59:B1 I *C 75.32 73.08 *L 0.0028 *D AO32X3

*CAP
1 *72:Q 0.00057684
2 *36:3 0.000535342
3 *36:4 0.00027032
4 *36:5 0.00021791
5 *36:6 9.32437e-05
6 *36:7 0.000672006

*RES
1 *36:8 *36:3 0.748918
2 *36:4 *36:5 0.407144
3 *36:6 *36:7 1.26667
4 *72:Q *36:8 2.92206
5 *36:6 *36:3 0.40375
6 *36:7 *36:4 0.40375
7 *36:4 *65:A 0.40375
8 *36:3 *59:B1 0.8075
*END

*D_NET *5 0.00457526

*CONN
*P *5 O *C 66.92 130.64 *L 0
*I *63:Q O *C 67.13 78.62 *L 0 *D AO21X3

*CAP
1 *5 0.00457526

*RES
1 *5 *63:Q 16.6675
*END

*D_NET *21 0.00269934

*CONN
*I *81:A I *C 71.66 63.85 *L 0.0012 *D NOR2XL
*I *76:A I *C 82.74 62.58 *L 0.00457 *D HAX3
*I *50:QN O *C 85.02 66.38 *L 0 *D DFPX3

*CAP
1 *76:A 0.000208317
2 *50:QN 0.000128708
3 *21:3 0.000550764
4 *21:4 0.000163663
5 *21:5 0.00026362
6 *21:6 0.000143173
7 *21:7 0.000964117
8 *21:8 0.000276982

*RES
1 *76:A *21:4 0.765656
2 *21:5 *21:6 0.407144
3 *21:7 *21:8 3.24041
4 *50:QN *21:3 1.8179
5 *21:3 *21:8 1.52294
6 *21:7 *21:5 0.40375
7 *21:8 *21:4 0.40375
8 *21:5 *81:A 0.40375
*END

*D_NET *37 0.00132055

*CONN
*I *76:SUM O *C 77.73 64.68 *L 0 *D HAX3
*I *64:A1 I *C 71.39 57.76 *L 0.00359 *D OAI21X3
*I *56:B I *C 73.64 64.12 *L 0.00142 *D NOR2XL

*CAP
1 *64:A1 0.000338079
2 *56:B 0.000451216
3 *37:3 0.000433708
4 *37:4 9.75507e-05

*RES
1 *64:A1 *37:4 1.5593
2 *56:B *76:SUM 2.25214
3 *56:B *37:3 1.33651
4 *37:3 *37:4 0.328429
*END

*D_NET *6 0.00480778

*CONN
*P *6 O *C 68.6 0 *L 0
*I *68:Q O *C 68.53 52.5 *L 0 *D NAND2X3

*CAP
1 *6 0.00250708
2 *68:Q 0.000194701
3 *6:2 0.002106

*RES
1 *68:Q *6:2 8.17924
2 *6 *6:3 8.78747
3 *6:3 *6:2 0.147476
*END

*D_NET *22 0.000906348

*CONN
*I *84:A2 I *C 64.12 77.56 *L 0.00267 *D OAI21X2
*I *80:A I *C 65.54 73.93 *L 0.0012 *D NOR2XL
*I *49:QN O *C 63.18 76.46 *L 0 *D DFPX3

*CAP
1 *84:A2 7.51618e-05
2 *80:A 0.000126953
3 *49:QN 6.89741e-05
4 *22:3 0.000635259

*RES
1 *80:A *22:3 0.669913
2 *49:QN *84:A2 0.295292
3 *22:3 *22:4 1.65368
4 *22:4 *84:A2 0.40375
*END

*D_NET *38 0.00113469

*CONN
*I *64:Q O *C 70.7 57.26 *L 0 *D OAI21X3
*I *58:B1 I *C 71.53 53.57 *L 0.00402 *D OAI21X3

*CAP
1 *58:B1 0.000576402
2 *38:2 0.000558288

*RES
1 *58:B1 *38:3 0.941125
2 *64:Q *38:2 1.15555
3 *38:3 *38:2 0.328429
*END

*D_NET *7 0.00479919

*CONN
*P *7 O *C 64.12 0 *L 0
*I *71:Q O *C 64.19 52.5 *L 0 *D NAND2X3

*CAP
1 *7 0.00254239
2 *71:Q 0.00016349
3 *7:2 0.00203046
4 *7:3 6.28533e-05

*RES
1 *71:Q *7:2 7.99829
2 *7 *7:3 8.96843
3 *7:2 *7:3 0.147476
*END

*D_NET *23 0.000625967

*CONN
*I *80:Q O *C 65.98 74.12 *L 0 *D NOR2XL
*I *67:A2 I *C 65.24 68.04 *L 0.00251 *D OAI31X2

*CAP
1 *80:Q 0.000144125
2 *67:A2 0.000481842

*RES
1 *80:Q *67:A2 1.89322
*END

*D_NET *39 0.00712045

*CONN
*I *83:Q O *C 68.26 66.7 *L 0 *D INVXL
*I *70:A2 I *C 65.8 57.96 *L 0.00381 *D OAI22X3
*I *66:A2 I *C 54.6 57.96 *L 0.00372 *D OAI21X3
*I *62:A2 I *C 52.92 68.04 *L 0.00372 *D OAI21X3
*I *58:A2 I *C 69.72 52.92 *L 0.00372 *D OAI21X3

*CAP
1 *66:A2 0.000243863
2 *62:A2 0.000108228
3 *39:5 0.000433932
4 *39:6 0.000291109
5 *39:7 0.000312231
6 *39:8 0.000268077
7 *39:9 0.000199152
8 *39:10 0.000650784
9 *39:11 0.000936197
10 *39:12 0.000142679
11 *39:13 0.000372083
12 *39:14 0.000782841
13 *39:15 0.00115584
14 *39:16 0.000129576
15 *39:17 7.70923e-05
16 *39:18 0.00101677

*RES
1 *39:11 *39:12 1.985
2 *39:13 *39:17 0.723812
3 *39:10 *39:19 0.765656
4 *39:13 *39:18 3.62743
5 *39:6 *39:7 0.452382
6 *39:14 *39:16 1.26667
7 *39:10 *39:20 1.08023
8 *39:15 *39:21 3.25715
9 *39:14 *39:18 1.63694
10 *66:A2 *39:10 0.567965
11 *39:20 *39:11 0.690335
12 *39:15 *39:19 0.203463
13 *39:8 *39:9 0.299929
14 *39:18 *39:21 0.40375
15 *39:16 *39:5 0.40375
16 *39:17 *39:6 0.40375
17 *39:21 *39:8 0.40375
18 *39:5 *58:A2 0.40375
19 *39:6 *83:Q 0.40375
20 *39:8 *70:A2 0.40375
21 *39:12 *62:A2 0.40375
*END

*D_NET *9 0.00877714

*CONN
*I *82:A I *C 69.98 63.85 *L 0.0012 *D NOR2XL
*I *81:B I *C 70.84 64.12 *L 0.00142 *D NOR2XL
*I *79:A1 I *C 64.69 63.2 *L 0.00359 *D OAI21X3
*I *78:A I *C 68.04 63 *L 0.0036 *D NAND3X3
*I *65:B I *C 70.28 74.2 *L 0.00142 *D NOR2XL
*I *64:A2 I *C 70.28 57.96 *L 0.00372 *D OAI21X3
*I *63:A2 I *C 69.53 77.42 *L 0.00208 *D AO21X3
*I *59:A2 I *C 73.64 73.08 *L 0.003 *D AO32X3
*I *49:Q O *C 61.88 77.56 *L 0 *D DFPX3

*CAP
1 *81:B 6.33119e-05
2 *9:9 0.000276993
3 *9:10 0.000139036
4 *9:11 0.000917059
5 *9:12 0.000276916
6 *9:13 0.00130111
7 *9:14 6.28533e-05
8 *9:15 0.000146609
9 *9:16 0.000866382
10 *9:17 0.000142407
11 *9:18 0.000165252
12 *9:19 0.000234803
13 *9:20 0.000170443
14 *9:21 0.000915902
15 *9:22 4.90097e-05
16 *9:23 0.000155339
17 *9:24 0.000207792
18 *9:25 0.000150429
19 *9:26 0.000309415
20 *9:27 0.000968025
21 *9:28 0.000178009
22 *9:29 0.00024625
23 *9:30 0.000833792

*RES
1 *9:14 *9:26 0.537375
2 *9:19 *9:20 0.407144
3 *9:31 *9:12 0.147476
4 *9:9 *9:32 0.204001
5 *9:31 *9:13 2.19394
6 *9:21 *9:29 1.85137
7 *9:15 *9:26 0.147476
8 *9:21 *9:22 0.147476
9 *9:11 *9:12 0.64459
10 *9:15 *9:16 0.118976
11 *9:10 *9:28 0.765656
12 *9:22 *9:23 0.152453
13 *64:A2 *9:16 1.89661
14 *9:10 *9:11 1.17619
15 *9:33 *9:29 0.757288
16 *9:13 *9:14 0.147476
17 *9:17 *9:18 0.299929
18 *9:28 *9:30 2.35239
19 *9:27 *9:34 1.26667
20 *9:24 *9:25 0.407144
21 *9:27 *9:11 0.40375
22 *9:33 *9:15 0.40375
23 *9:28 *9:17 0.40375
24 *9:29 *9:19 0.40375
25 *9:30 *9:24 0.40375
26 *9:34 *9:32 0.8075
27 *9:11 *65:B 0.40375
28 *9:19 *78:A 0.40375
29 *9:24 *49:Q 0.40375
30 *9:26 *81:B 0.40375
31 *9:17 *63:A2 0.40375
32 *9:32 *59:A2 0.8075
33 *9:22 *79:A1 0.8075
34 *81:B *82:A 1e-06
*END

*D_NET *25 0.00312939

*CONN
*I *82:Q O *C 69.54 64.04 *L 0 *D NOR2XL
*I *77:A I *C 68.04 57.96 *L 0.00148 *D NAND2XL
*I *70:B1 I *C 63.42 58.38 *L 0.00372 *D OAI22X3

*CAP
1 *77:A 0.000612012
2 *70:B1 0.000239694
3 *25:3 0.000364709
4 *25:4 0.00022915
5 *25:5 0.000288797
6 *25:6 0.000173345
7 *25:7 0.000283197
8 *25:8 0.000772794
9 *25:9 0.000165688

*RES
1 *77:A *25:7 1.48947
2 *70:B1 *25:4 0.660064
3 *25:9 *25:10 0.542859
4 *25:3 *25:4 0.64347
5 *25:5 *25:6 0.407144
6 *25:7 *25:9 0.574363
7 *25:8 *25:9 1.48947
8 *25:3 *25:8 1.09409
9 *25:10 *25:5 0.40375
10 *25:5 *82:Q 0.40375
*END

*D_NET *41 0.00208758

*CONN
*I *65:Q O *C 70.66 74.12 *L 0 *D NOR2XL
*I *60:A I *C 69.72 74.2 *L 0.00134 *D INVXL
*I *56:A I *C 72.82 63.85 *L 0.0012 *D NOR2XL

*CAP
1 *65:Q 0.000329225
2 *60:A 0.000312636
3 *56:A 0.000433053
4 *41:3 0.00101267

*RES
1 *65:Q *41:3 2.02684
2 *56:A *41:4 1.33651
3 *41:4 *41:3 0.328429
4 *60:A *41:5 0.981798
5 *65:Q *41:5 0.617026
*END

*D_NET *10 0.004965

*CONN
*I *79:A2 I *C 65.8 63 *L 0.00372 *D OAI21X3
*I *77:B I *C 66.92 57.4 *L 0.00154 *D NAND2XL
*I *75:B I *C 69.72 57.4 *L 0.00154 *D NAND2XL
*I *67:A3 I *C 65.66 68.46 *L 0.00278 *D OAI31X2
*I *51:Q O *C 83.02 56.14 *L 0 *D DFCX1

*CAP
1 *10:5 0.000303758
2 *10:6 0.00032517
3 *10:7 0.000552355
4 *10:8 0.000455184
5 *10:9 0.000959785
6 *10:10 0.00100327
7 *10:11 0.000159866
8 *10:12 7.75206e-05
9 *10:13 0.00101563
10 *10:14 0.00011246

*RES
1 *10:11 *10:14 0.509382
2 *10:5 *10:6 0.452382
3 *10:15 *10:10 1.08023
4 *10:8 *10:9 0.718328
5 *10:11 *10:12 0.203463
6 *10:16 *10:10 0.885285
7 *10:12 *10:13 3.22368
8 *10:7 *10:16 0.356422
9 *10:15 *10:8 0.328429
10 *10:13 *10:17 0.203463
11 *67:A3 *10:9 2.24676
12 *10:7 *10:17 0.946609
13 *10:14 *10:5 0.40375
14 *10:16 *75:B 0.40375
15 *10:9 *79:A2 0.40375
16 *10:10 *77:B 0.40375
17 *10:5 *51:Q 0.8075
*END

*D_NET *26 0.00554335

*CONN
*I *78:C I *C 66.36 63 *L 0.00416 *D NAND3X3
*I *76:B I *C 82.26 63.14 *L 0.00491 *D HAX3
*I *74:B I *C 59.64 57.4 *L 0.00154 *D NAND2XL
*I *51:QN O *C 85.21 58.26 *L 0 *D DFCX1

*CAP
1 *78:C 0.000193959
2 *76:B 0.000188063
3 *74:B 0.00091795
4 *51:QN 0.000323958
5 *26:4 0.00014053
6 *26:5 0.0011062
7 *26:6 0.00144207
8 *26:7 0.000348091
9 *26:8 0.000882533

*RES
1 *76:B *26:8 1.49784
2 *26:4 *26:8 1.88485
3 *51:QN *26:4 1.30851
4 *26:6 *26:8 4.49035
5 *26:6 *26:7 0.17547
6 *78:C *26:7 1.31688
7 *26:5 *26:7 2.73666
8 *74:B *26:5 1.67042
*END

*D_NET *42 0.00633771

*CONN
*I *84:A1 I *C 65.23 78.25 *L 0.00245 *D OAI21X2
*I *76:CO O *C 79.38 63.14 *L 0 *D HAX3
*I *72:A I *C 80.92 74.2 *L 0.00134 *D INVXL
*I *63:A1 I *C 68.6 78.12 *L 0.00208 *D AO21X3
*I *59:A1 I *C 74.91 72.66 *L 0.00301 *D AO32X3

*CAP
1 *84:A1 0.000475618
2 *76:CO 0.00104044
3 *72:A 0.000806918
4 *42:5 0.000139777
5 *42:6 0.000217834
6 *42:7 0.000207523
7 *42:8 0.000699655
8 *42:9 0.00157046
9 *42:10 0.000412738
10 *42:11 0.000536161
11 *42:12 0.000230585

*RES
1 *42:8 *42:10 0.509382
2 *42:7 *42:10 0.570852
3 *42:6 *42:11 0.871288
4 *76:CO *42:5 2.90361
5 *42:6 *42:9 3.58038
6 *72:A *42:11 3.29936
7 *84:A1 *42:13 1.71226
8 *42:13 *42:12 0.17547
9 *42:5 *42:8 2.2886
10 *42:7 *42:11 0.356422
11 *42:9 *42:12 0.361906
12 *42:10 *59:A1 0.40375
13 *42:12 *63:A1 0.40375
*END

*D_NET *12 0.00159317

*CONN
*I *67:B1 I *C 63.56 67.48 *L 0.00277 *D OAI31X2
*I *53:Q O *C 60.62 74.9 *L 0 *D DFCX1

*CAP
1 *67:B1 0.000357197
2 *53:Q 0.000155587
3 *12:2 0.000897575
4 *12:3 0.000182811

*RES
1 *67:B1 *12:3 1.58223
2 *53:Q *12:2 2.97893
3 *12:2 *12:3 0.338329
*END

*D_NET *28 0.00300354

*CONN
*I *78:Q O *C 67.03 62.6 *L 0 *D NAND3X3
*I *73:A I *C 58.66 67.34 *L 0.00363 *D NAND2X3
*I *62:A1 I *C 54.03 67.84 *L 0.00359 *D OAI21X3

*CAP
1 *78:Q 0.000267676
2 *62:A1 0.000212881
3 *28:3 0.000268317
4 *28:4 0.000211416
5 *28:5 0.00142088
6 *28:6 0.000164196
7 *28:7 0.000458173

*RES
1 *28:3 *28:6 0.760172
2 *28:8 *28:6 0.509382
3 *78:Q *28:4 0.765656
4 *28:5 *28:7 0.707074
5 *28:4 *28:5 4.09813
6 *62:A1 *28:3 0.991648
7 *28:8 *28:7 0.735067
8 *28:7 *73:A 0.40375
*END

*D_NET *44 0.0014848

*CONN
*I *58:Q O *C 70.14 53.62 *L 0 *D OAI21X3
*I *52:D I *C 75.32 52.92 *L 0.00193 *D DFCX1

*CAP
1 *52:D 0.000236419
2 *44:2 0.000141154
3 *44:3 0.000391499
4 *44:4 0.000101486
5 *44:5 0.000614246

*RES
1 *52:D *44:2 0.748918
2 *44:3 *44:4 0.226191
3 *44:2 *44:5 2.0658
4 *44:5 *44:3 0.40375
5 *44:3 *58:Q 0.40375
*END

*D_NET *13 0.00360556

*CONN
*I *63:B1 I *C 68.04 78.12 *L 0.00246 *D AO21X3
*I *59:B2 I *C 76.44 73.64 *L 0.00296 *D AO32X3
*I *54:Q O *C 83.02 76.3 *L 0 *D DFCX1

*CAP
1 *59:B2 0.000611339
2 *13:3 0.000223023
3 *13:4 0.000154442
4 *13:5 0.000783187
5 *13:6 0.000227474
6 *13:7 0.000107147
7 *13:8 0.000712219
8 *13:9 0.000786724

*RES
1 *13:5 *13:10 0.946609
2 *63:B1 *13:5 1.35036
3 *13:6 *13:7 0.203463
4 *13:6 *13:9 0.509382
5 *13:3 *13:4 0.299929
6 *59:B2 *13:9 1.67879
7 *13:7 *13:8 1.5951
8 *13:8 *13:10 0.203463
9 *13:11 *13:9 2.20491
10 *13:11 *13:3 0.40375
11 *13:3 *54:Q 0.40375
*END

*D_NET *29 0.000803213

*CONN
*I *71:B I *C 63.56 52.92 *L 0.00395 *D NAND2X3
*I *70:B2 I *C 63 57.96 *L 0.00408 *D OAI22X3
*I *61:QN O *C 62.81 52.62 *L 0 *D DFCX1

*CAP
1 *70:B2 0.000172492
2 *61:QN 0.000630721

*RES
1 *61:QN *71:B 0.321735
2 *70:B2 *61:QN 2.07417
*END

*D_NET *45 0.000942103

*CONN
*I *56:Q O *C 73.26 64.04 *L 0 *D NOR2XL
*I *51:D I *C 75.32 57.96 *L 0.00193 *D DFCX1

*CAP
1 *56:Q 0.000281022
2 *51:D 0.000550769
3 *45:2 0.000110312

*RES
1 *56:Q *45:2 1.31338
2 *51:D *45:2 2.25512
*END

*D_NET *31 0.0023426

*CONN
*I *70:Q O *C 64.4 58.46 *L 0 *D OAI22X3
*I *61:D I *C 52.92 52.92 *L 0.00193 *D DFCX1

*CAP
1 *61:D 0.000443682
2 *31:2 0.000433879
3 *31:3 0.00126035
4 *31:4 0.000204691

*RES
1 *61:D *31:3 1.29178
2 *31:3 *31:4 4.38471
3 *31:4 *31:5 0.192208
4 *31:5 *31:2 0.40375
5 *31:2 *70:Q 0.40375
*END

*D_NET *47 0.0020131

*CONN
*I *84:B1 I *C 65.66 77.42 *L 0.00287 *D OAI21X2
*I *60:Q O *C 69.38 74.42 *L 0 *D INVXL
*I *55:A I *C 69.16 68.04 *L 0.00148 *D NAND2XL

*CAP
1 *84:B1 0.000187165
2 *60:Q 0.000216583
3 *55:A 0.000990672
4 *47:3 0.000294518
5 *47:4 0.000324167

*RES
1 *84:B1 *47:4 0.941125
2 *55:A *60:Q 2.46955
3 *47:3 *47:5 0.941125
4 *47:5 *47:4 0.509382
5 *60:Q *47:3 0.991647
*END

*D_NET *16 0.000736403

*CONN
*I *79:B1 I *C 63.99 63.65 *L 0.00402 *D OAI21X3
*I *57:Q O *C 60.62 64.82 *L 0 *D DFCX1

*CAP
1 *57:Q 0.000147723
2 *16:2 0.00058868

*RES
1 *57:Q *16:3 0.988453
2 *79:B1 *16:2 0.929871
3 *16:2 *16:3 0.384416
*END

*D_NET *32 0.0016586

*CONN
*I *74:Q O *C 59.5 57.82 *L 0 *D NAND2XL
*I *69:A I *C 53.06 57.26 *L 0.00363 *D NAND2X3
*I *66:A1 I *C 55.71 57.76 *L 0.00359 *D OAI21X3

*CAP
1 *74:Q 0.000421004
2 *69:A 0.000186489
3 *66:A1 0.000138418
4 *32:3 0.00017978
5 *32:4 0.000293438
6 *32:5 0.000439469

*RES
1 *66:A1 *32:4 1.12208
2 *66:A1 *74:Q 1.95685
3 *32:4 *32:5 0.871288
4 *32:3 *32:5 0.760172
5 *69:A *32:3 0.669913
*END

*D_NET *48 0.00199512

*CONN
*I *84:Q O *C 64.75 77.08 *L 0 *D OAI21X2
*I *49:D I *C 53.34 77.42 *L 0.00193 *D DFPX3

*CAP
1 *49:D 0.000315944
2 *48:2 0.000110158
3 *48:3 0.000155123
4 *48:4 4.43253e-05
5 *48:5 0.000343499
6 *48:6 0.000263583
7 *48:7 0.000690798
8 *48:8 7.16865e-05

*RES
1 *48:2 *48:6 0.946609
2 *48:5 *48:8 0.946609
3 *49:D *48:5 1.12756
4 *48:7 *48:8 0.203463
5 *48:2 *48:3 0.147476
6 *48:3 *48:4 0.118976
7 *48:9 *48:7 2.68082
8 *48:6 *48:9 0.203463
9 *48:3 *84:Q 0.40375
*END

*D_NET *1 0.0146424

*CONN
*P *1 I *C 0 65.8 *L 0
*I *61:CP I *C 50.68 52.92 *L 0.00195 *D DFCX1
*I *57:CP I *C 50.68 63 *L 0.00195 *D DFCX1
*I *54:CP I *C 73.08 78.12 *L 0.00195 *D DFCX1
*I *53:CP I *C 50.68 73.08 *L 0.00195 *D DFCX1
*I *52:CP I *C 73.08 52.92 *L 0.00195 *D DFCX1
*I *51:CP I *C 73.08 57.96 *L 0.00195 *D DFCX1
*I *50:CP I *C 73.08 68.6 *L 0.00199 *D DFPX3
*I *49:CP I *C 51.24 78.68 *L 0.00199 *D DFPX3

*CAP
1 *1 0.00438505
2 *57:CP 8.08986e-05
3 *53:CP 8.08986e-05
4 *50:CP 0.00142217
5 *49:CP 0.000120329
6 *1:9 5.99492e-05
7 *1:10 0.000283297
8 *1:11 0.00014003
9 *1:12 0.000816921
10 *1:13 0.000946022
11 *1:14 8.90265e-05
12 *1:15 0.000984792
13 *1:16 0.00235091
14 *1:17 0.000553517
15 *1:18 0.000312342
16 *1:19 0.00201623

*RES
1 *1:12 *1:18 0.871288
2 *1:15 *1:19 7.67534
3 *1:20 *1:13 0.147476
4 *50:CP *1:14 3.44647
5 *1:9 *1:14 0.147476
6 *1:16 *1:17 1.77605
7 *1:10 *1:20 0.356422
8 *49:CP *1:16 1.07366
9 *1:9 *1:16 8.26004
10 *1:10 *1:11 0.299929
11 *1:13 *1:18 2.88976
12 *51:CP *1:15 2.43608
13 *1 *1:12 16.2539
14 *1:12 *1:17 2.31891
15 *1:19 *1:10 0.40375
16 *1:14 *54:CP 0.40375
17 *1:15 *52:CP 0.40375
18 *1:10 *61:CP 0.40375
19 *1:17 *53:CP 0.40375
20 *1:18 *57:CP 0.40375
*END

*D_NET *33 0.00182559

*CONN
*I *75:Q O *C 69.86 57.82 *L 0 *D NAND2XL
*I *68:A I *C 68.74 53.62 *L 0.00363 *D NAND2X3
*I *58:A1 I *C 70.83 53.12 *L 0.00359 *D OAI21X3

*CAP
1 *68:A 0.000124983
2 *33:3 0.000679471
3 *33:4 0.000684959
4 *33:5 0.000336177

*RES
1 *75:Q *33:4 1.15555
2 *58:A1 *33:3 0.567965
3 *33:3 *33:6 0.746321
4 *33:4 *33:5 0.328429
5 *33:6 *33:4 0.690335
6 *33:5 *68:A 0.40375
*END

*D_NET *8 0.00469456

*CONN
*P *8 O *C 0 58.52 *L 0
*I *69:Q O *C 52.85 58.38 *L 0 *D NAND2X3

*CAP
1 *8 0.00431188
2 *8:2 0.000228857
3 *8:3 0.000153828

*RES
1 *8 *8:4 16.5739
2 *8:2 *8:3 0.299929
3 *8:4 *8:2 0.40375
4 *8:2 *69:Q 0.40375
*END

*D_NET *24 0.00252022

*CONN
*I *79:Q O *C 65.38 63.7 *L 0 *D OAI21X3
*I *66:B1 I *C 56.41 57.31 *L 0.00402 *D OAI21X3

*CAP
1 *66:B1 0.000227463
2 *24:2 0.00086884
3 *24:3 0.000171505
4 *24:4 0.000229301
5 *24:5 0.00102311

*RES
1 *24:5 *24:6 2.60866
2 *66:B1 *24:2 0.991647
3 *24:3 *24:4 0.299929
4 *24:2 *24:5 2.36076
5 *24:6 *24:3 0.40375
6 *24:3 *79:Q 0.40375
*END

*D_NET *40 0.000935769

*CONN
*I *62:Q O *C 53.34 67.34 *L 0 *D OAI21X3
*I *53:D I *C 52.92 73.08 *L 0.00193 *D DFCX1

*CAP
1 *62:Q 0.00044832
2 *40:2 0.000487449

*RES
1 *62:Q *40:3 1.12208
2 *53:D *40:2 1.51746
3 *40:3 *40:2 0.147476
*END

*D_NET *11 0.00436205

*CONN
*I *82:B I *C 69.16 64.12 *L 0.00142 *D NOR2XL
*I *80:B I *C 66.36 74.2 *L 0.00142 *D NOR2XL
*I *78:B I *C 67.34 63.7 *L 0.00379 *D NAND3X3
*I *55:B I *C 70.28 67.48 *L 0.00154 *D NAND2XL
*I *50:Q O *C 83.72 67.48 *L 0 *D DFPX3

*CAP
1 *82:B 0.000366828
2 *80:B 0.000177726
3 *78:B 0.000351562
4 *11:5 9.37465e-05
5 *11:6 0.000207749
6 *11:7 0.000150429
7 *11:8 0.000380538
8 *11:9 8.21774e-05
9 *11:10 0.00120402
10 *11:11 0.00134727

*RES
1 *11:8 *11:11 0.570852
2 *11:8 *11:9 0.328429
3 *80:B *11:5 0.64347
4 *11:11 *11:12 4.74662
5 *82:B *11:9 0.969745
6 *78:B *11:10 1.12756
7 *11:6 *11:7 0.407144
8 *11:9 *11:10 0.509382
9 *11:5 *11:10 2.75065
10 *11:12 *11:6 0.40375
11 *11:11 *55:B 0.40375
12 *11:6 *50:Q 0.40375
*END

*D_NET *27 0.00485172

*CONN
*I *81:Q O *C 71.22 64.04 *L 0 *D NOR2XL
*I *75:A I *C 68.6 57.96 *L 0.00148 *D NAND2XL
*I *74:A I *C 60.76 57.96 *L 0.00148 *D NAND2XL
*I *67:A1 I *C 64.68 68.6 *L 0.00252 *D OAI31X2

*CAP
1 *81:Q 0.000165987
2 *75:A 0.000366018
3 *74:A 0.000253629
4 *67:A1 0.000431107
5 *27:4 0.000139264
6 *27:5 0.000342551
7 *27:6 0.00036872
8 *27:7 9.85756e-05
9 *27:8 0.00192788
10 *27:9 0.000158082
11 *27:10 0.000102392
12 *27:11 0.000497514

*RES
1 *74:A *27:8 0.765656
2 *27:7 *27:8 2.16595
3 *81:Q *27:5 0.913132
4 *27:5 *27:11 1.34199
5 *27:6 *27:7 0.328429
6 *27:9 *27:11 0.509382
7 *27:8 *27:10 2.39423
8 *27:4 *27:6 1.30303
9 *27:9 *27:10 0.203463
10 *67:A1 *27:4 1.63512
11 *75:A *27:11 1.35036
*END

*D_NET *43 0.00175514

*CONN
*I *59:Q O *C 72.66 74.9 *L 0 *D AO32X3
*I *54:D I *C 75.32 78.12 *L 0.00193 *D DFCX1

*CAP
1 *43:2 0.000886139
2 *43:3 0.000202193
3 *43:4 0.000214897
4 *43:5 0.000451907

*RES
1 *54:D *43:2 1.47273
2 *43:3 *43:4 0.299929
3 *43:2 *43:5 1.32525
4 *43:5 *43:3 0.40375
5 *43:3 *59:Q 0.40375
*END

*D_NET *14 0.00230171

*CONN
*I *64:B1 I *C 72.09 57.31 *L 0.00402 *D OAI21X3
*I *52:Q O *C 83.02 54.74 *L 0 *D DFCX1

*CAP
1 *52:Q 0.000643594
2 *14:2 9.60697e-05
3 *14:3 0.000179381
4 *14:4 0.000201823
5 *14:5 0.00118084

*RES
1 *52:Q *14:2 1.30851
2 *14:3 *14:4 0.299929
3 *14:2 *14:5 4.00607
4 *14:5 *14:3 0.40375
5 *14:3 *64:B1 0.40375
*END

*D_NET *30 0.00143119

*CONN
*I *77:Q O *C 66.78 57.82 *L 0 *D NAND2XL
*I *71:A I *C 63.98 53.62 *L 0.00363 *D NAND2X3
*I *70:A1 I *C 64.68 57.96 *L 0.00348 *D OAI22X3

*CAP
1 *71:A 0.000329137
2 *30:3 0.000229132
3 *30:4 0.000138558
4 *30:5 0.000734362

*RES
1 *70:A1 *30:4 0.988453
2 *71:A *30:5 1.12756
3 *77:Q *30:3 0.793649
4 *30:4 *30:5 0.746321
5 *30:3 *30:5 1.05224
*END

*D_NET *46 0.000980913

*CONN
*I *55:Q O *C 70.42 67.9 *L 0 *D NAND2XL
*I *50:D I *C 75.18 67.34 *L 0.00193 *D DFPX3

*CAP
1 *55:Q 0.000212918
2 *50:D 0.000151044
3 *46:2 0.000121159
4 *46:3 0.000495792

*RES
1 *55:Q *46:2 0.938761
2 *50:D *46:3 1.45599
3 *46:3 *46:2 0.40375
*END

